
  Marvin  01010805553D          

 21 23  0  0  1  0            999 V2000
   -0.9391   -2.6100   -3.5775 N   0  0  0  0  0  0  0  0  0  0  0  0
   -2.0232   -2.3028   -2.6020 C   0  0  1  0  0  0  0  0  0  0  0  0
   -1.3813   -2.4294   -1.1707 C   0  0  0  0  0  0  0  0  0  0  0  0
    0.0235   -1.7356   -1.0180 C   0  0  1  0  0  0  0  0  0  0  0  0
    0.7822   -1.3792   -2.3520 C   0  0  0  0  0  0  0  0  0  0  0  0
   -0.1201   -1.3676   -3.6396 C   0  0  2  0  0  0  0  0  0  0  0  0
   -1.1799   -0.2338   -3.6400 C   0  0  0  0  0  0  0  0  0  0  0  0
   -2.4301   -0.8494   -2.9637 C   0  0  0  0  0  0  0  0  0  0  0  0
   -1.2705   -3.3173   -4.8360 C   0  0  0  0  0  0  0  0  0  0  0  0
   -0.0981   -0.6159   -0.2910 O   0  0  0  0  0  0  0  0  0  0  0  0
    0.4407   -0.2516    0.7804 C   0  0  0  0  0  0  0  0  0  0  0  0
    1.1422   -1.0360    1.4118 O   0  0  0  0  0  0  0  0  0  0  0  0
    0.2261    1.1246    1.2539 C   0  0  2  0  0  0  0  0  0  0  0  0
    0.6621    2.1365    0.1586 C   0  0  0  0  0  0  0  0  0  0  0  0
   -0.3283    2.2368   -0.8585 O   0  0  0  0  0  0  0  0  0  0  0  0
    0.6960    1.5945    2.6036 C   0  0  0  0  0  0  0  0  0  0  0  0
   -0.0530    2.6635    3.2208 C   0  0  0  0  0  0  0  0  0  0  0  0
    0.3255    3.1895    4.4954 C   0  0  0  0  0  0  0  0  0  0  0  0
    1.4606    2.6040    5.1417 C   0  0  0  0  0  0  0  0  0  0  0  0
    2.2297    1.5356    4.5821 C   0  0  0  0  0  0  0  0  0  0  0  0
    1.8349    1.0436    3.3007 C   0  0  0  0  0  0  0  0  0  0  0  0
  2  1  1  0  0  0  0
  6  1  1  0  0  0  0
  1  9  1  0  0  0  0
  2  3  1  0  0  0  0
  2  8  1  0  0  0  0
  3  4  1  0  0  0  0
  4  5  1  0  0  0  0
  4 10  1  0  0  0  0
  5  6  1  0  0  0  0
  6  7  1  0  0  0  0
  7  8  1  0  0  0  0
 10 11  1  0  0  0  0
 11 12  2  0  0  0  0
 11 13  1  0  0  0  0
 13 14  1  0  0  0  0
 13 16  1  0  0  0  0
 14 15  1  0  0  0  0
 16 17  2  0  0  0  0
 16 21  1  0  0  0  0
 17 18  1  0  0  0  0
 18 19  2  0  0  0  0
 19 20  1  0  0  0  0
 20 21  2  0  0  0  0
M  END
$$$$
