121515
  Marvin  01010805553D          

 50 53  0  0  1  0            999 V2000
    1.9013   -0.0124   -1.0281 O   0  0  0  0  0  0  0  0  0  0  0  0
    5.0191   -0.8219    2.7628 O   0  0  0  0  0  0  0  0  0  0  0  0
   -1.7218    0.3944    0.0024 N   0  0  0  0  0  0  0  0  0  0  0  0
    0.5551   -3.7852    1.9496 N   0  0  0  0  0  0  0  0  0  0  0  0
   -1.6805    2.7305   -1.1623 C   0  0  2  0  0  0  0  0  0  0  0  0
   -2.9408    1.9041   -1.6287 C   0  0  2  0  0  0  0  0  0  0  0  0
   -0.4823    0.4911   -0.8638 C   0  0  1  0  0  0  0  0  0  0  0  0
   -0.3738    1.9323   -1.4854 C   0  0  0  0  0  0  0  0  0  0  0  0
   -2.9377    0.5272   -0.8656 C   0  0  0  0  0  0  0  0  0  0  0  0
   -1.7188    2.8800    0.3980 C   0  0  0  0  0  0  0  0  0  0  0  0
   -1.7672    1.4631    1.0571 C   0  0  0  0  0  0  0  0  0  0  0  0
   -3.0791    1.7570   -3.1757 C   0  0  0  0  0  0  0  0  0  0  0  0
    0.7898   -0.0295   -0.1305 C   0  0  1  0  0  0  0  0  0  0  0  0
    0.7437   -1.3567    0.5713 C   0  0  0  0  0  0  0  0  0  0  0  0
   -4.3923    1.1108   -3.6754 C   0  0  0  0  0  0  0  0  0  0  0  0
    1.7503   -1.7389    1.5091 C   0  0  0  0  0  0  0  0  0  0  0  0
   -0.3031   -2.2832    0.3224 C   0  0  0  0  0  0  0  0  0  0  0  0
    1.6117   -2.9768    2.2046 C   0  0  0  0  0  0  0  0  0  0  0  0
    2.9125   -0.9777    1.7854 C   0  0  0  0  0  0  0  0  0  0  0  0
   -0.3918   -3.4884    1.0338 C   0  0  0  0  0  0  0  0  0  0  0  0
    2.5646   -3.4045    3.1487 C   0  0  0  0  0  0  0  0  0  0  0  0
    3.9177   -1.4405    2.6579 C   0  0  0  0  0  0  0  0  0  0  0  0
    3.7174   -2.6352    3.3727 C   0  0  0  0  0  0  0  0  0  0  0  0
    6.0003   -0.8606    1.8521 C   0  0  0  0  0  0  0  0  0  0  0  0
   -1.6554    3.7202   -1.6276 H   0  0  0  0  0  0  0  0  0  0  0  0
   -3.8204    2.4714   -1.3050 H   0  0  0  0  0  0  0  0  0  0  0  0
   -0.5865   -0.1950   -1.7132 H   0  0  0  0  0  0  0  0  0  0  0  0
   -0.2104    1.8859   -2.5650 H   0  0  0  0  0  0  0  0  0  0  0  0
    0.4929    2.4753   -1.0974 H   0  0  0  0  0  0  0  0  0  0  0  0
   -3.8470    0.4186   -0.2668 H   0  0  0  0  0  0  0  0  0  0  0  0
   -2.9598   -0.3326   -1.5399 H   0  0  0  0  0  0  0  0  0  0  0  0
   -0.8392    3.4257    0.7534 H   0  0  0  0  0  0  0  0  0  0  0  0
   -2.5861    3.4711    0.7025 H   0  0  0  0  0  0  0  0  0  0  0  0
   -2.6725    1.3557    1.6619 H   0  0  0  0  0  0  0  0  0  0  0  0
   -0.9499    1.3351    1.7698 H   0  0  0  0  0  0  0  0  0  0  0  0
   -3.0024    2.7464   -3.6340 H   0  0  0  0  0  0  0  0  0  0  0  0
   -2.2553    1.1575   -3.5698 H   0  0  0  0  0  0  0  0  0  0  0  0
    1.0045    0.7316    0.6219 H   0  0  0  0  0  0  0  0  0  0  0  0
   -4.3956    1.0710   -4.7662 H   0  0  0  0  0  0  0  0  0  0  0  0
   -5.2575    1.6894   -3.3487 H   0  0  0  0  0  0  0  0  0  0  0  0
   -4.5025    0.0883   -3.3113 H   0  0  0  0  0  0  0  0  0  0  0  0
    1.7175   -0.7007   -1.7003 H   0  0  0  0  0  0  0  0  0  0  0  0
   -1.0295   -2.1191   -0.3748 H   0  0  0  0  0  0  0  0  0  0  0  0
    3.0767   -0.0755    1.3352 H   0  0  0  0  0  0  0  0  0  0  0  0
   -1.1579   -4.1434    0.8673 H   0  0  0  0  0  0  0  0  0  0  0  0
    2.4406   -4.2827    3.6584 H   0  0  0  0  0  0  0  0  0  0  0  0
    4.4228   -2.9643    4.0360 H   0  0  0  0  0  0  0  0  0  0  0  0
    6.7931   -0.1786    2.1557 H   0  0  0  0  0  0  0  0  0  0  0  0
    5.6632   -0.5632    0.8548 H   0  0  0  0  0  0  0  0  0  0  0  0
    6.4221   -1.8673    1.7903 H   0  0  0  0  0  0  0  0  0  0  0  0
 13  1  1  0  0  0  0
  1 42  1  0  0  0  0
  2 22  1  0  0  0  0
  2 24  1  0  0  0  0
  3  7  1  0  0  0  0
  3  9  1  0  0  0  0
  3 11  1  0  0  0  0
  4 18  2  0  0  0  0
  4 20  1  0  0  0  0
  5  6  1  0  0  0  0
  5  8  1  0  0  0  0
  5 10  1  0  0  0  0
  5 25  1  0  0  0  0
  6  9  1  0  0  0  0
  6 12  1  0  0  0  0
  6 26  1  0  0  0  0
  7  8  1  0  0  0  0
  7 13  1  0  0  0  0
  7 27  1  0  0  0  0
  8 28  1  0  0  0  0
  8 29  1  0  0  0  0
  9 30  1  0  0  0  0
  9 31  1  0  0  0  0
 10 11  1  0  0  0  0
 10 32  1  0  0  0  0
 10 33  1  0  0  0  0
 11 34  1  0  0  0  0
 11 35  1  0  0  0  0
 12 15  1  0  0  0  0
 12 36  1  0  0  0  0
 12 37  1  0  0  0  0
 13 14  1  0  0  0  0
 13 38  1  0  0  0  0
 14 16  2  0  0  0  0
 14 17  1  0  0  0  0
 15 39  1  0  0  0  0
 15 40  1  0  0  0  0
 15 41  1  0  0  0  0
 16 18  1  0  0  0  0
 16 19  1  0  0  0  0
 17 20  2  0  0  0  0
 17 43  1  0  0  0  0
 18 21  1  0  0  0  0
 19 22  2  0  0  0  0
 19 44  1  0  0  0  0
 20 45  1  0  0  0  0
 21 23  2  0  0  0  0
 21 46  1  0  0  0  0
 22 23  1  0  0  0  0
 23 47  1  0  0  0  0
 24 48  1  0  0  0  0
 24 49  1  0  0  0  0
 24 50  1  0  0  0  0
M  END
> <PUBCHEM_BONDANNOTATIONS>
13  1  5
14  16  8
14  17  8
16  18  8
16  19  8
17  20  8
18  21  8
19  22  8
21  23  8
22  23  8
4  18  8
4  20  8
5  25  5
6  12  6
7  27  6

$$$$
