
  Marvin  01010816123D          

 12 12  0  0  0  0            999 V2000
   -2.7208   -2.5317    0.3119 C   0  0  0  0  0  0  0  0  0  0  0  0
   -1.5156   -1.9964    0.1067 O   0  0  0  0  0  0  0  0  0  0  0  0
   -1.0833   -0.8173   -0.1065 C   0  0  0  0  0  0  0  0  0  0  0  0
    0.3364   -0.7758   -0.1338 C   0  0  0  0  0  0  0  0  0  0  0  0
    0.9662    0.4871   -0.3200 C   0  0  0  0  0  0  0  0  0  0  0  0
    0.2226    1.6851   -0.5092 C   0  0  0  0  0  0  0  0  0  0  0  0
   -1.1936    1.6752   -0.4997 C   0  0  0  0  0  0  0  0  0  0  0  0
   -1.8078    0.4106   -0.2927 C   0  0  0  0  0  0  0  0  0  0  0  0
   -3.0600    0.4448   -0.2834 O   0  0  0  0  0  0  0  0  0  0  0  0
    2.4327    0.5958   -0.3254 C   0  0  0  0  0  0  0  0  0  0  0  0
    3.0511    0.3778    0.9550 C   0  0  0  0  0  0  0  0  0  0  0  0
    4.3720    0.4450    1.0972 C   0  0  0  0  0  0  0  0  0  0  0  0
  1  2  1  0  0  0  0
  2  3  1  0  0  0  0
  3  4  1  0  0  0  0
  3  8  2  0  0  0  0
  4  5  2  0  0  0  0
  5  6  1  0  0  0  0
  5 10  1  0  0  0  0
  6  7  2  0  0  0  0
  7  8  1  0  0  0  0
  8  9  1  0  0  0  0
 10 11  1  0  0  0  0
 11 12  2  0  0  0  0
M  END
$$$$
