
  SciTegic07080820033D

 11 11  0  0  0  0            999 V2000
    3.6804   -0.4731   -0.0692 C   0  0
    2.5130   -1.4772   -0.0140 C   0  0
    2.6023   -2.4333   -1.2228 C   0  0
    1.1961   -0.7310   -0.0104 C   0  0
    1.2037    0.6593   -0.0181 C   0  0
    0.0083    1.3670   -0.0162 C   0  0
   -1.2009    0.6838   -0.0022 C   0  0
   -2.4936    1.4453   -0.0010 C   0  0
   -1.2126   -0.7051    0.0165 C   0  0
   -0.0175   -1.4146    0.0118 C   0  0
   -0.0528   -2.8066    0.0497 O   0  0
  1  2  1  0
  2  3  1  0
  2  4  1  0
  4  5  4  0
  5  6  4  0
  6  7  4  0
  7  8  1  0
  7  9  4  0
  9 10  4  0
 10  4  4  0
 10 11  1  0
M  END
