24823
  Marvin  12300703363D          

  3  2  0  0  0  0            999 V2000
   -0.1850   -0.3204    0.0000 O   0  3  0  0  0  0  0  0  0  0  0  0
    0.9250   -0.3204    0.0000 O   0  5  0  0  0  0  0  0  0  0  0  0
   -0.7400    0.6409    0.0000 O   0  0  0  0  0  0  0  0  0  0  0  0
  1  2  1  0  0  0  0
  1  3  2  0  0  0  0
M  CHG  2   1   1   2  -1
M  END
$$$$
