2519
  Marvin  12300703363D          

 24 25  0  0  0  0            999 V2000
    0.2334   -2.4028    0.0000 O   0  0  0  0  0  0  0  0  0  0  0  0
   -3.0649    0.6291    0.0000 O   0  0  0  0  0  0  0  0  0  0  0  0
   -0.9932    1.3676   -0.0000 N   0  0  0  0  0  0  0  0  0  0  0  0
    2.1442   -0.2040    0.0000 N   0  0  0  0  0  0  0  0  0  0  0  0
   -1.4882   -0.9478   -0.0000 N   0  0  0  0  0  0  0  0  0  0  0  0
    1.3894    1.8799   -0.0000 N   0  0  0  0  0  0  0  0  0  0  0  0
    0.7919   -0.2478    0.0000 C   0  0  0  0  0  0  0  0  0  0  0  0
    0.3203    1.0664   -0.0000 C   0  0  0  0  0  0  0  0  0  0  0  0
   -0.1786   -1.2491    0.0000 C   0  0  0  0  0  0  0  0  0  0  0  0
   -1.8687    0.3474    0.0000 C   0  0  0  0  0  0  0  0  0  0  0  0
    2.4783    1.1018    0.0000 C   0  0  0  0  0  0  0  0  0  0  0  0
   -1.3939    2.7265   -0.0000 C   0  0  0  0  0  0  0  0  0  0  0  0
    3.1166   -1.2519    0.0000 C   0  0  0  0  0  0  0  0  0  0  0  0
   -2.4309   -2.0179   -0.0000 C   0  0  0  0  0  0  0  0  0  0  0  0
    3.4289    1.4800    0.0000 H   0  0  0  0  0  0  0  0  0  0  0  0
   -1.9937    2.9374   -0.8880 H   0  0  0  0  0  0  0  0  0  0  0  0
   -1.9937    2.9374    0.8880 H   0  0  0  0  0  0  0  0  0  0  0  0
   -0.5919    3.4694   -0.0000 H   0  0  0  0  0  0  0  0  0  0  0  0
    3.7476   -1.1709    0.8873 H   0  0  0  0  0  0  0  0  0  0  0  0
    3.7476   -1.1709   -0.8873 H   0  0  0  0  0  0  0  0  0  0  0  0
    2.6876   -2.2518    0.0000 H   0  0  0  0  0  0  0  0  0  0  0  0
   -2.3008   -2.6451   -0.8860 H   0  0  0  0  0  0  0  0  0  0  0  0
   -2.3008   -2.6451    0.8860 H   0  0  0  0  0  0  0  0  0  0  0  0
   -3.4866   -1.7380   -0.0000 H   0  0  0  0  0  0  0  0  0  0  0  0
  1  9  2  0  0  0  0
  2 10  2  0  0  0  0
  3  8  1  0  0  0  0
  3 10  1  0  0  0  0
  3 12  1  0  0  0  0
  4  7  1  0  0  0  0
  4 11  1  0  0  0  0
  4 13  1  0  0  0  0
  5  9  1  0  0  0  0
  5 10  1  0  0  0  0
  5 14  1  0  0  0  0
  6  8  1  0  0  0  0
  6 11  2  0  0  0  0
  7  8  2  0  0  0  0
  7  9  1  0  0  0  0
 11 15  1  0  0  0  0
 12 16  1  0  0  0  0
 12 17  1  0  0  0  0
 12 18  1  0  0  0  0
 13 19  1  0  0  0  0
 13 20  1  0  0  0  0
 13 21  1  0  0  0  0
 14 22  1  0  0  0  0
 14 23  1  0  0  0  0
 14 24  1  0  0  0  0
M  END
> <PUBCHEM_BONDANNOTATIONS>
3  10  8
3  8  8
4  11  8
4  7  8
5  10  8
5  9  8
6  11  8
6  8  8
7  8  8
7  9  8

$$$$
