33603
  Marvin  12300703363D          

 28 29  0  0  0  0            999 V2000
    1.3199   -1.2826   -2.3735 O   0  0  0  0  0  0  0  0  0  0  0  0
    0.2887   -0.5625   -0.5067 N   0  0  0  0  0  0  0  0  0  0  0  0
    0.8782   -2.7595   -0.9754 N   0  0  0  0  0  0  0  0  0  0  0  0
    0.9987    0.5978   -0.4828 C   0  0  0  0  0  0  0  0  0  0  0  0
   -0.8801   -0.7084    0.2144 C   0  0  0  0  0  0  0  0  0  0  0  0
    2.3387    0.6330   -0.0147 C   0  0  0  0  0  0  0  0  0  0  0  0
   -1.8014   -1.7766    0.0022 C   0  0  0  0  0  0  0  0  0  0  0  0
    0.4324    1.8165   -0.9352 C   0  0  0  0  0  0  0  0  0  0  0  0
   -1.2835    0.2116    1.2288 C   0  0  0  0  0  0  0  0  0  0  0  0
    0.8121   -1.5125   -1.2811 C   0  0  0  0  0  0  0  0  0  0  0  0
    3.0859    1.8250   -0.0122 C   0  0  0  0  0  0  0  0  0  0  0  0
   -2.9933   -1.9343    0.7337 C   0  0  0  0  0  0  0  0  0  0  0  0
    1.1668    3.0173   -0.9168 C   0  0  0  0  0  0  0  0  0  0  0  0
   -2.4895    0.1019    1.9459 C   0  0  0  0  0  0  0  0  0  0  0  0
    2.4968    3.0190   -0.4616 C   0  0  0  0  0  0  0  0  0  0  0  0
   -3.3441   -0.9831    1.7025 C   0  0  0  0  0  0  0  0  0  0  0  0
    2.7872   -0.2207    0.3272 H   0  0  0  0  0  0  0  0  0  0  0  0
   -1.6370   -2.4880   -0.7105 H   0  0  0  0  0  0  0  0  0  0  0  0
   -0.5299    1.8390   -1.2813 H   0  0  0  0  0  0  0  0  0  0  0  0
   -0.7012    1.0127    1.4796 H   0  0  0  0  0  0  0  0  0  0  0  0
    4.0549    1.8232    0.3150 H   0  0  0  0  0  0  0  0  0  0  0  0
   -3.6078   -2.7336    0.5595 H   0  0  0  0  0  0  0  0  0  0  0  0
    0.7357    3.8880   -1.2355 H   0  0  0  0  0  0  0  0  0  0  0  0
   -2.7461    0.8055    2.6427 H   0  0  0  0  0  0  0  0  0  0  0  0
    3.0362    3.8878   -0.4572 H   0  0  0  0  0  0  0  0  0  0  0  0
   -4.2169   -1.0790    2.2264 H   0  0  0  0  0  0  0  0  0  0  0  0
    1.2708   -3.3687   -1.5678 H   0  0  0  0  0  0  0  0  0  0  0  0
    0.5279   -3.0690   -0.1657 H   0  0  0  0  0  0  0  0  0  0  0  0
  1 10  2  0  0  0  0
  2  4  1  0  0  0  0
  2  5  1  0  0  0  0
  2 10  1  0  0  0  0
  3 10  1  0  0  0  0
  3 27  1  0  0  0  0
  3 28  1  0  0  0  0
  4  6  2  0  0  0  0
  4  8  1  0  0  0  0
  5  7  2  0  0  0  0
  5  9  1  0  0  0  0
  6 11  1  0  0  0  0
  6 17  1  0  0  0  0
  7 12  1  0  0  0  0
  7 18  1  0  0  0  0
  8 13  2  0  0  0  0
  8 19  1  0  0  0  0
  9 14  2  0  0  0  0
  9 20  1  0  0  0  0
 11 15  2  0  0  0  0
 11 21  1  0  0  0  0
 12 16  2  0  0  0  0
 12 22  1  0  0  0  0
 13 15  1  0  0  0  0
 13 23  1  0  0  0  0
 14 16  1  0  0  0  0
 14 24  1  0  0  0  0
 15 25  1  0  0  0  0
 16 26  1  0  0  0  0
M  END
> <PUBCHEM_BONDANNOTATIONS>
11  15  8
12  16  8
13  15  8
14  16  8
4  6  8
4  8  8
5  7  8
5  9  8
6  11  8
7  12  8
8  13  8
9  14  8

$$$$
