3830
  Marvin  12300703363D          

 25 27  0  0  0  0            999 V2000
    1.4125   -2.5121    1.3664 O   0  0  0  0  0  0  0  0  0  0  0  0
   -0.5207   -0.2768   -0.5753 N   0  0  0  0  0  0  0  0  0  0  0  0
    1.5170    2.0035   -0.8286 N   0  0  0  0  0  0  0  0  0  0  0  0
   -2.1050    1.3738   -0.9225 N   0  0  0  0  0  0  0  0  0  0  0  0
    0.8639    4.1178   -0.9627 N   0  0  0  0  0  0  0  0  0  0  0  0
   -1.5404    3.6602   -1.0460 N   0  0  0  0  0  0  0  0  0  0  0  0
   -0.1151   -0.6699    0.7015 C   0  0  0  0  0  0  0  0  0  0  0  0
    0.1793    2.0045   -0.8716 C   0  0  0  0  0  0  0  0  0  0  0  0
   -0.8016    0.9937   -0.8189 C   0  0  0  0  0  0  0  0  0  0  0  0
    0.2030   -2.0877    0.9253 C   0  0  0  0  0  0  0  0  0  0  0  0
   -0.2255    3.3359   -0.9699 C   0  0  0  0  0  0  0  0  0  0  0  0
   -0.6467   -3.1890    0.8295 C   0  0  0  0  0  0  0  0  0  0  0  0
    1.9172    3.2854   -0.8755 C   0  0  0  0  0  0  0  0  0  0  0  0
    0.0747   -4.2960    1.2579 C   0  0  0  0  0  0  0  0  0  0  0  0
   -2.4818    2.6781   -1.0326 C   0  0  0  0  0  0  0  0  0  0  0  0
    1.3492   -3.8452    1.5768 C   0  0  0  0  0  0  0  0  0  0  0  0
    0.7655   -0.0964    1.0025 H   0  0  0  0  0  0  0  0  0  0  0  0
   -0.9151   -0.4299    1.4076 H   0  0  0  0  0  0  0  0  0  0  0  0
   -0.6731   -0.9182   -1.2406 H   0  0  0  0  0  0  0  0  0  0  0  0
    2.0911    1.2235   -0.7731 H   0  0  0  0  0  0  0  0  0  0  0  0
   -1.6226   -3.1870    0.5283 H   0  0  0  0  0  0  0  0  0  0  0  0
    2.8926    3.5868   -0.8486 H   0  0  0  0  0  0  0  0  0  0  0  0
   -0.2648   -5.2560    1.3348 H   0  0  0  0  0  0  0  0  0  0  0  0
   -3.4712    2.9206   -1.0911 H   0  0  0  0  0  0  0  0  0  0  0  0
    2.1178   -4.4194    1.9262 H   0  0  0  0  0  0  0  0  0  0  0  0
  1 10  1  0  0  0  0
  1 16  1  0  0  0  0
  2  7  1  0  0  0  0
  2  9  1  0  0  0  0
  2 19  1  0  0  0  0
  3  8  1  0  0  0  0
  3 13  1  0  0  0  0
  3 20  1  0  0  0  0
  4  9  2  0  0  0  0
  4 15  1  0  0  0  0
  5 11  1  0  0  0  0
  5 13  2  0  0  0  0
  6 11  1  0  0  0  0
  6 15  2  0  0  0  0
  7 10  1  0  0  0  0
  7 17  1  0  0  0  0
  7 18  1  0  0  0  0
  8  9  1  0  0  0  0
  8 11  2  0  0  0  0
 10 12  2  0  0  0  0
 12 14  1  0  0  0  0
 12 21  1  0  0  0  0
 13 22  1  0  0  0  0
 14 16  2  0  0  0  0
 14 23  1  0  0  0  0
 15 24  1  0  0  0  0
 16 25  1  0  0  0  0
M  END
> <PUBCHEM_BONDANNOTATIONS>
1  10  8
1  16  8
10  12  8
12  14  8
14  16  8
3  13  8
3  8  8
4  15  8
4  9  8
5  11  8
5  13  8
6  11  8
6  15  8
8  11  8
8  9  8

$$$$
