439250
  Marvin  12310709273D          

 26 26  0  0  1  0            999 V2000
    0.5904    1.0773    0.1830 C   0  0  1  0  0  0  0  0  0  0  0  0
    1.6147    0.0441   -0.3883 C   0  0  0  0  0  0  0  0  0  0  0  0
   -0.5934    1.2115   -0.8276 C   0  0  0  0  0  0  0  0  0  0  0  0
    0.9724   -1.2864   -0.8844 C   0  0  0  0  0  0  0  0  0  0  0  0
   -0.4141   -1.2057   -1.3580 C   0  0  0  0  0  0  0  0  0  0  0  0
   -1.1061   -0.0480   -1.3377 C   0  0  0  0  0  0  0  0  0  0  0  0
    0.1416    0.9264    1.5869 C   0  0  0  0  0  0  0  0  0  0  0  0
   -1.0323   -2.4359   -1.8398 C   0  0  0  0  0  0  0  0  0  0  0  0
   -0.1900    2.1376    2.3408 C   0  0  0  0  0  0  0  0  0  0  0  0
   -0.0003   -0.2609    2.2041 C   0  0  0  0  0  0  0  0  0  0  0  0
    1.1340    2.0293    0.1343 H   0  0  0  0  0  0  0  0  0  0  0  0
    2.1176    0.4990   -1.2493 H   0  0  0  0  0  0  0  0  0  0  0  0
    2.4035   -0.1585    0.3417 H   0  0  0  0  0  0  0  0  0  0  0  0
   -0.2795    1.7984   -1.6962 H   0  0  0  0  0  0  0  0  0  0  0  0
   -1.4200    1.7724   -0.3820 H   0  0  0  0  0  0  0  0  0  0  0  0
    1.6039   -1.6906   -1.6804 H   0  0  0  0  0  0  0  0  0  0  0  0
    1.0280   -2.0309   -0.0878 H   0  0  0  0  0  0  0  0  0  0  0  0
   -2.0352   -0.0224   -1.6942 H   0  0  0  0  0  0  0  0  0  0  0  0
   -1.1049   -3.1516   -1.0183 H   0  0  0  0  0  0  0  0  0  0  0  0
   -0.4319   -2.8790   -2.6360 H   0  0  0  0  0  0  0  0  0  0  0  0
   -2.0422   -2.3066   -2.2370 H   0  0  0  0  0  0  0  0  0  0  0  0
    0.6790    2.7950    2.3990 H   0  0  0  0  0  0  0  0  0  0  0  0
   -0.9998    2.6789    1.8498 H   0  0  0  0  0  0  0  0  0  0  0  0
   -0.5168    1.9661    3.3700 H   0  0  0  0  0  0  0  0  0  0  0  0
   -0.3048   -0.3396    3.1450 H   0  0  0  0  0  0  0  0  0  0  0  0
    0.1864   -1.1201    1.7626 H   0  0  0  0  0  0  0  0  0  0  0  0
  1  2  1  0  0  0  0
  1  3  1  0  0  0  0
  1  7  1  0  0  0  0
  1 11  1  0  0  0  0
  2  4  1  0  0  0  0
  2 12  1  0  0  0  0
  2 13  1  0  0  0  0
  3  6  1  0  0  0  0
  3 14  1  0  0  0  0
  3 15  1  0  0  0  0
  4  5  1  0  0  0  0
  4 16  1  0  0  0  0
  4 17  1  0  0  0  0
  5  6  2  0  0  0  0
  5  8  1  0  0  0  0
  6 18  1  0  0  0  0
  7  9  1  0  0  0  0
  7 10  2  0  0  0  0
  8 19  1  0  0  0  0
  8 20  1  0  0  0  0
  8 21  1  0  0  0  0
  9 22  1  0  0  0  0
  9 23  1  0  0  0  0
  9 24  1  0  0  0  0
 10 25  1  0  0  0  0
 10 26  1  0  0  0  0
M  END
> <PUBCHEM_BONDANNOTATIONS>
1  7  5

$$$$
