445354
  Marvin  12310709493D          

 51 51  0  0  0  0            999 V2000
   -3.0287   -6.3253   -2.8989 O   0  0  0  0  0  0  0  0  0  0  0  0
    2.9540    2.0430    1.4202 C   0  0  1  0  0  0  0  0  0  0  0  0
    3.3739    3.2157    2.3801 C   0  0  0  0  0  0  0  0  0  0  0  0
    2.8850    4.5890    1.8830 C   0  0  0  0  0  0  0  0  0  0  0  0
    1.5295    2.1692    0.9722 C   0  0  0  0  0  0  0  0  0  0  0  0
    1.3526    4.5353    1.6821 C   0  0  0  0  0  0  0  0  0  0  0  0
    0.7875    3.3053    1.1035 C   0  0  0  0  0  0  0  0  0  0  0  0
    3.8677    2.0525    0.1451 C   0  0  0  0  0  0  0  0  0  0  0  0
    3.2734    0.7284    2.2230 C   0  0  0  0  0  0  0  0  0  0  0  0
    0.9956    1.0886    0.3286 C   0  0  0  0  0  0  0  0  0  0  0  0
   -0.6215    3.4577    0.7062 C   0  0  0  0  0  0  0  0  0  0  0  0
    0.4535    0.0205    0.9360 C   0  0  0  0  0  0  0  0  0  0  0  0
   -0.0166   -1.0806    0.2892 C   0  0  0  0  0  0  0  0  0  0  0  0
    0.6668   -2.3426    0.5794 C   0  0  0  0  0  0  0  0  0  0  0  0
   -1.0796   -0.9755   -0.5399 C   0  0  0  0  0  0  0  0  0  0  0  0
   -1.6849   -1.9879   -1.2176 C   0  0  0  0  0  0  0  0  0  0  0  0
   -2.9664   -1.9745   -1.6316 C   0  0  0  0  0  0  0  0  0  0  0  0
   -3.6386   -2.9965   -2.2542 C   0  0  0  0  0  0  0  0  0  0  0  0
   -4.5593   -2.6371   -3.3332 C   0  0  0  0  0  0  0  0  0  0  0  0
   -3.4661   -4.2803   -1.8605 C   0  0  0  0  0  0  0  0  0  0  0  0
   -4.0616   -5.4957   -2.3792 C   0  0  0  0  0  0  0  0  0  0  0  0
    2.9426    3.0690    3.3771 H   0  0  0  0  0  0  0  0  0  0  0  0
    4.4581    3.2574    2.5226 H   0  0  0  0  0  0  0  0  0  0  0  0
    3.1501    5.3690    2.6027 H   0  0  0  0  0  0  0  0  0  0  0  0
    3.3837    4.8457    0.9450 H   0  0  0  0  0  0  0  0  0  0  0  0
    0.8793    4.6991    2.6549 H   0  0  0  0  0  0  0  0  0  0  0  0
    1.1067    5.4035    1.0619 H   0  0  0  0  0  0  0  0  0  0  0  0
    3.6954    2.9337   -0.4763 H   0  0  0  0  0  0  0  0  0  0  0  0
    4.9286    2.0341    0.4027 H   0  0  0  0  0  0  0  0  0  0  0  0
    3.6862    1.1839   -0.4930 H   0  0  0  0  0  0  0  0  0  0  0  0
    4.2555    0.7536    2.7023 H   0  0  0  0  0  0  0  0  0  0  0  0
    2.5406    0.5596    3.0151 H   0  0  0  0  0  0  0  0  0  0  0  0
    3.2755   -0.1586    1.5854 H   0  0  0  0  0  0  0  0  0  0  0  0
    1.0333    1.1162   -0.6662 H   0  0  0  0  0  0  0  0  0  0  0  0
   -1.2257    3.7392    1.5716 H   0  0  0  0  0  0  0  0  0  0  0  0
   -0.7228    4.2362   -0.0530 H   0  0  0  0  0  0  0  0  0  0  0  0
   -1.1008    2.5714    0.2899 H   0  0  0  0  0  0  0  0  0  0  0  0
    0.4084   -0.0028    1.9300 H   0  0  0  0  0  0  0  0  0  0  0  0
   -0.0360   -3.0694    0.9914 H   0  0  0  0  0  0  0  0  0  0  0  0
    1.0993   -2.7515   -0.3362 H   0  0  0  0  0  0  0  0  0  0  0  0
    1.4909   -2.2656    1.2953 H   0  0  0  0  0  0  0  0  0  0  0  0
   -1.4947   -0.0747   -0.6568 H   0  0  0  0  0  0  0  0  0  0  0  0
   -1.1449   -2.8012   -1.4071 H   0  0  0  0  0  0  0  0  0  0  0  0
   -3.4921   -1.1441   -1.4647 H   0  0  0  0  0  0  0  0  0  0  0  0
   -4.2550   -3.1222   -4.2627 H   0  0  0  0  0  0  0  0  0  0  0  0
   -5.5767   -2.9473   -3.0864 H   0  0  0  0  0  0  0  0  0  0  0  0
   -4.6096   -1.5666   -3.5541 H   0  0  0  0  0  0  0  0  0  0  0  0
   -2.8547   -4.4657   -1.0952 H   0  0  0  0  0  0  0  0  0  0  0  0
   -4.5582   -6.0297   -1.5659 H   0  0  0  0  0  0  0  0  0  0  0  0
   -4.7982   -5.3396   -3.1670 H   0  0  0  0  0  0  0  0  0  0  0  0
   -3.4810   -7.1420   -3.1968 H   0  0  0  0  0  0  0  0  0  0  0  0
  1 21  1  0  0  0  0
  1 51  1  0  0  0  0
  2  3  1  0  0  0  0
  2  5  1  0  0  0  0
  2  8  1  0  0  0  0
  2  9  1  0  0  0  0
  3  4  1  0  0  0  0
  3 22  1  0  0  0  0
  3 23  1  0  0  0  0
  4  6  1  0  0  0  0
  4 24  1  0  0  0  0
  4 25  1  0  0  0  0
  5  7  2  0  0  0  0
  5 10  1  0  0  0  0
  6  7  1  0  0  0  0
  6 26  1  0  0  0  0
  6 27  1  0  0  0  0
  7 11  1  0  0  0  0
  8 28  1  0  0  0  0
  8 29  1  0  0  0  0
  8 30  1  0  0  0  0
  9 31  1  0  0  0  0
  9 32  1  0  0  0  0
  9 33  1  0  0  0  0
 10 12  2  0  0  0  0
 10 34  1  0  0  0  0
 11 35  1  0  0  0  0
 11 36  1  0  0  0  0
 11 37  1  0  0  0  0
 12 13  1  0  0  0  0
 12 38  1  0  0  0  0
 13 14  1  0  0  0  0
 13 15  2  0  0  0  0
 14 39  1  0  0  0  0
 14 40  1  0  0  0  0
 14 41  1  0  0  0  0
 15 16  1  0  0  0  0
 15 42  1  0  0  0  0
 16 17  2  0  0  0  0
 16 43  1  0  0  0  0
 17 18  1  0  0  0  0
 17 44  1  0  0  0  0
 18 19  1  0  0  0  0
 18 20  2  0  0  0  0
 19 45  1  0  0  0  0
 19 46  1  0  0  0  0
 19 47  1  0  0  0  0
 20 21  1  0  0  0  0
 20 48  1  0  0  0  0
 21 49  1  0  0  0  0
 21 50  1  0  0  0  0
M  END
$$$$
