449093
  Marvin  12310709493D          

 29 30  0  0  0  0            999 V2000
    2.1651   -3.8482    1.2047 O   0  0  0  0  0  0  0  0  0  0  0  0
   -0.7608    0.1053   -1.2224 N   0  0  0  0  0  0  0  0  0  0  0  0
    1.2805    2.3683   -1.3184 N   0  0  0  0  0  0  0  0  0  0  0  0
   -2.3472    1.7876   -1.4227 N   0  0  0  0  0  0  0  0  0  0  0  0
    0.6526    4.4944   -1.2965 N   0  0  0  0  0  0  0  0  0  0  0  0
   -1.7595    4.0708   -1.3906 N   0  0  0  0  0  0  0  0  0  0  0  0
   -0.0562    2.3896   -1.3513 C   0  0  0  0  0  0  0  0  0  0  0  0
   -0.4209   -0.4063    0.0336 C   0  0  0  0  0  0  0  0  0  0  0  0
   -1.0466    1.3885   -1.3638 C   0  0  0  0  0  0  0  0  0  0  0  0
    0.0173   -1.7874    0.1225 C   0  0  0  0  0  0  0  0  0  0  0  0
   -0.4477    3.7280   -1.3503 C   0  0  0  0  0  0  0  0  0  0  0  0
    0.2638   -2.4637    1.2685 C   0  0  0  0  0  0  0  0  0  0  0  0
    0.7416   -3.8450    1.2158 C   0  0  0  0  0  0  0  0  0  0  0  0
    1.6964    3.6447   -1.2762 C   0  0  0  0  0  0  0  0  0  0  0  0
    0.1130   -1.8953    2.6106 C   0  0  0  0  0  0  0  0  0  0  0  0
   -2.7121    3.1001   -1.4359 C   0  0  0  0  0  0  0  0  0  0  0  0
   -1.3168   -0.3012    0.6528 H   0  0  0  0  0  0  0  0  0  0  0  0
    0.3832    0.1964    0.4679 H   0  0  0  0  0  0  0  0  0  0  0  0
   -0.8707   -0.4741   -1.9502 H   0  0  0  0  0  0  0  0  0  0  0  0
    0.1606   -2.2513   -0.7469 H   0  0  0  0  0  0  0  0  0  0  0  0
    1.8448    1.5781   -1.3225 H   0  0  0  0  0  0  0  0  0  0  0  0
    0.3890   -4.3859    0.3342 H   0  0  0  0  0  0  0  0  0  0  0  0
    0.4115   -4.4318    2.0775 H   0  0  0  0  0  0  0  0  0  0  0  0
    2.6746    3.9318   -1.2343 H   0  0  0  0  0  0  0  0  0  0  0  0
    1.0535   -1.9662    3.1605 H   0  0  0  0  0  0  0  0  0  0  0  0
   -0.6520   -2.4446    3.1630 H   0  0  0  0  0  0  0  0  0  0  0  0
   -0.1778   -0.8457    2.6508 H   0  0  0  0  0  0  0  0  0  0  0  0
   -3.6989    3.3576   -1.4665 H   0  0  0  0  0  0  0  0  0  0  0  0
    2.4201   -4.7946    1.1861 H   0  0  0  0  0  0  0  0  0  0  0  0
  1 13  1  0  0  0  0
  1 29  1  0  0  0  0
  2  8  1  0  0  0  0
  2  9  1  0  0  0  0
  2 19  1  0  0  0  0
  3  7  1  0  0  0  0
  3 14  1  0  0  0  0
  3 21  1  0  0  0  0
  4  9  2  0  0  0  0
  4 16  1  0  0  0  0
  5 11  1  0  0  0  0
  5 14  2  0  0  0  0
  6 11  1  0  0  0  0
  6 16  2  0  0  0  0
  7  9  1  0  0  0  0
  7 11  2  0  0  0  0
  8 10  1  0  0  0  0
  8 17  1  0  0  0  0
  8 18  1  0  0  0  0
 10 12  2  0  0  0  0
 10 20  1  0  0  0  0
 12 13  1  0  0  0  0
 12 15  1  0  0  0  0
 13 22  1  0  0  0  0
 13 23  1  0  0  0  0
 14 24  1  0  0  0  0
 15 25  1  0  0  0  0
 15 26  1  0  0  0  0
 15 27  1  0  0  0  0
 16 28  1  0  0  0  0
M  END
> <PUBCHEM_BONDANNOTATIONS>
3  14  8
3  7  8
4  16  8
4  9  8
5  11  8
5  14  8
6  11  8
6  16  8
7  11  8
7  9  8

$$$$
