5280896
  Marvin  12300716493D          

 39 39  0  0  1  0            999 V2000
    0.9323    0.4890   -1.7535 O   0  0  0  0  0  0  0  0  0  0  0  0
   -4.3008   -0.3363   -1.3408 O   0  0  0  0  0  0  0  0  0  0  0  0
    2.9267   -3.6358    2.2743 O   0  0  0  0  0  0  0  0  0  0  0  0
    2.0053   -2.7662    0.6614 O   0  0  0  0  0  0  0  0  0  0  0  0
   -1.1506    1.4579   -0.8846 C   0  0  1  0  0  0  0  0  0  0  0  0
   -0.2307    0.1490   -0.9763 C   0  0  1  0  0  0  0  0  0  0  0  0
   -2.6294    1.0330   -0.5563 C   0  0  0  0  0  0  0  0  0  0  0  0
   -0.8890   -0.9842   -1.6906 C   0  0  0  0  0  0  0  0  0  0  0  0
   -0.7293    2.5014    0.2118 C   0  0  0  0  0  0  0  0  0  0  0  0
   -1.1463    2.2556   -2.2420 C   0  0  0  0  0  0  0  0  0  0  0  0
   -3.0937   -0.1414   -1.2702 C   0  0  0  0  0  0  0  0  0  0  0  0
    0.2312   -0.3143    0.3472 C   0  0  0  0  0  0  0  0  0  0  0  0
   -2.2356   -1.0486   -1.7964 C   0  0  0  0  0  0  0  0  0  0  0  0
   -0.0960   -2.0792   -2.2661 C   0  0  0  0  0  0  0  0  0  0  0  0
    1.3672    0.0800    0.9550 C   0  0  0  0  0  0  0  0  0  0  0  0
    1.7977   -0.2707    2.1968 C   0  0  0  0  0  0  0  0  0  0  0  0
    1.8199    0.8043    3.1917 C   0  0  0  0  0  0  0  0  0  0  0  0
    2.2363   -1.5007    2.5502 C   0  0  0  0  0  0  0  0  0  0  0  0
    2.3788   -2.6366    1.8166 C   0  0  0  0  0  0  0  0  0  0  0  0
   -2.7424    0.7809    0.5021 H   0  0  0  0  0  0  0  0  0  0  0  0
   -3.3159    1.8664   -0.7402 H   0  0  0  0  0  0  0  0  0  0  0  0
   -1.3600    3.3943    0.1972 H   0  0  0  0  0  0  0  0  0  0  0  0
    0.3032    2.8283    0.0806 H   0  0  0  0  0  0  0  0  0  0  0  0
   -0.8141    2.0937    1.2216 H   0  0  0  0  0  0  0  0  0  0  0  0
   -1.4248    1.6274   -3.0889 H   0  0  0  0  0  0  0  0  0  0  0  0
   -1.8370    3.1026   -2.2341 H   0  0  0  0  0  0  0  0  0  0  0  0
   -0.1602    2.6731   -2.4613 H   0  0  0  0  0  0  0  0  0  0  0  0
   -0.3580   -0.9408    0.8511 H   0  0  0  0  0  0  0  0  0  0  0  0
   -2.6517   -1.8146   -2.2788 H   0  0  0  0  0  0  0  0  0  0  0  0
    1.5267   -0.2884   -1.7187 H   0  0  0  0  0  0  0  0  0  0  0  0
    0.5549   -1.7091   -3.0589 H   0  0  0  0  0  0  0  0  0  0  0  0
    0.5232   -2.5393   -1.4973 H   0  0  0  0  0  0  0  0  0  0  0  0
   -0.6734   -2.8955   -2.7087 H   0  0  0  0  0  0  0  0  0  0  0  0
    1.9541    0.7336    0.4893 H   0  0  0  0  0  0  0  0  0  0  0  0
    1.1807    0.5415    4.0370 H   0  0  0  0  0  0  0  0  0  0  0  0
    2.8380    0.9550    3.5593 H   0  0  0  0  0  0  0  0  0  0  0  0
    1.4759    1.7792    2.8323 H   0  0  0  0  0  0  0  0  0  0  0  0
    2.5261   -1.6031    3.4990 H   0  0  0  0  0  0  0  0  0  0  0  0
    3.2607   -3.6414    3.0893 H   0  0  0  0  0  0  0  0  0  0  0  0
  6  1  1  0  0  0  0
  1 30  1  0  0  0  0
  2 11  2  0  0  0  0
  3 19  1  0  0  0  0
  3 39  1  0  0  0  0
  4 19  2  0  0  0  0
  5  6  1  0  0  0  0
  5  7  1  0  0  0  0
  5  9  1  0  0  0  0
  5 10  1  0  0  0  0
  6  8  1  0  0  0  0
  6 12  1  0  0  0  0
  7 11  1  0  0  0  0
  7 20  1  0  0  0  0
  7 21  1  0  0  0  0
  8 13  2  0  0  0  0
  8 14  1  0  0  0  0
  9 22  1  0  0  0  0
  9 23  1  0  0  0  0
  9 24  1  0  0  0  0
 10 25  1  0  0  0  0
 10 26  1  0  0  0  0
 10 27  1  0  0  0  0
 11 13  1  0  0  0  0
 12 15  2  0  0  0  0
 12 28  1  0  0  0  0
 13 29  1  0  0  0  0
 14 31  1  0  0  0  0
 14 32  1  0  0  0  0
 14 33  1  0  0  0  0
 15 16  1  0  0  0  0
 15 34  1  0  0  0  0
 16 17  1  0  0  0  0
 16 18  2  0  0  0  0
 17 35  1  0  0  0  0
 17 36  1  0  0  0  0
 17 37  1  0  0  0  0
 18 19  1  0  0  0  0
 18 38  1  0  0  0  0
M  END
> <PUBCHEM_BONDANNOTATIONS>
6  1  6

$$$$
