5281166
  Marvin  12300716493D          

 33 33  0  0  1  0            999 V2000
   -2.7058   -0.2549   -0.7963 O   0  0  0  0  0  0  0  0  0  0  0  0
    2.4864    3.8395    1.7738 O   0  0  0  0  0  0  0  0  0  0  0  0
    0.7293    3.3012    2.7360 O   0  0  0  0  0  0  0  0  0  0  0  0
   -0.2824    1.6618    0.6120 C   0  0  2  0  0  0  0  0  0  0  0  0
   -0.5394    0.6955   -0.5826 C   0  0  2  0  0  0  0  0  0  0  0  0
   -1.5057    2.6210    0.5986 C   0  0  0  0  0  0  0  0  0  0  0  0
   -2.5175    2.0312   -0.4026 C   0  0  0  0  0  0  0  0  0  0  0  0
   -1.9838    0.7232   -0.6491 C   0  0  0  0  0  0  0  0  0  0  0  0
    1.1089    2.3670    0.6071 C   0  0  0  0  0  0  0  0  0  0  0  0
    0.1309   -0.6989   -0.4159 C   0  0  0  0  0  0  0  0  0  0  0  0
    0.0336   -1.6339   -1.5238 C   0  0  0  0  0  0  0  0  0  0  0  0
    1.4427    3.1983    1.7502 C   0  0  0  0  0  0  0  0  0  0  0  0
    0.5198   -2.8869   -1.5153 C   0  0  0  0  0  0  0  0  0  0  0  0
    1.2167   -3.5507   -0.4241 C   0  0  0  0  0  0  0  0  0  0  0  0
    0.3906   -4.7073    0.1770 C   0  0  0  0  0  0  0  0  0  0  0  0
   -0.3365    1.0728    1.5372 H   0  0  0  0  0  0  0  0  0  0  0  0
   -0.1612    1.1482   -1.5069 H   0  0  0  0  0  0  0  0  0  0  0  0
   -1.9491    2.6851    1.5971 H   0  0  0  0  0  0  0  0  0  0  0  0
   -1.2385    3.6373    0.2967 H   0  0  0  0  0  0  0  0  0  0  0  0
   -3.5348    2.0130   -0.0020 H   0  0  0  0  0  0  0  0  0  0  0  0
   -2.5171    2.5934   -1.3411 H   0  0  0  0  0  0  0  0  0  0  0  0
    1.8940    1.6100    0.5406 H   0  0  0  0  0  0  0  0  0  0  0  0
    1.1831    2.9800   -0.2952 H   0  0  0  0  0  0  0  0  0  0  0  0
    1.1966   -0.5380   -0.2400 H   0  0  0  0  0  0  0  0  0  0  0  0
   -0.2884   -1.1727    0.4767 H   0  0  0  0  0  0  0  0  0  0  0  0
   -0.4229   -1.3264   -2.3529 H   0  0  0  0  0  0  0  0  0  0  0  0
    0.3904   -3.4271   -2.3422 H   0  0  0  0  0  0  0  0  0  0  0  0
    2.1684   -3.9352   -0.7995 H   0  0  0  0  0  0  0  0  0  0  0  0
    1.4743   -2.8764    0.3963 H   0  0  0  0  0  0  0  0  0  0  0  0
    3.0478    3.8152    1.0960 H   0  0  0  0  0  0  0  0  0  0  0  0
    0.9097   -5.1269    1.0407 H   0  0  0  0  0  0  0  0  0  0  0  0
   -0.5889   -4.3553    0.5101 H   0  0  0  0  0  0  0  0  0  0  0  0
    0.2485   -5.5032   -0.5566 H   0  0  0  0  0  0  0  0  0  0  0  0
  1  8  2  0  0  0  0
  2 12  1  0  0  0  0
  2 30  1  0  0  0  0
  3 12  2  0  0  0  0
  4  5  1  0  0  0  0
  4  6  1  0  0  0  0
  4  9  1  0  0  0  0
  4 16  1  0  0  0  0
  5  8  1  0  0  0  0
  5 10  1  0  0  0  0
  5 17  1  0  0  0  0
  6  7  1  0  0  0  0
  6 18  1  0  0  0  0
  6 19  1  0  0  0  0
  7  8  1  0  0  0  0
  7 20  1  0  0  0  0
  7 21  1  0  0  0  0
  9 12  1  0  0  0  0
  9 22  1  0  0  0  0
  9 23  1  0  0  0  0
 10 11  1  0  0  0  0
 10 24  1  0  0  0  0
 10 25  1  0  0  0  0
 11 13  2  0  0  0  0
 11 26  1  0  0  0  0
 13 14  1  0  0  0  0
 13 27  1  0  0  0  0
 14 15  1  0  0  0  0
 14 28  1  0  0  0  0
 14 29  1  0  0  0  0
 15 31  1  0  0  0  0
 15 32  1  0  0  0  0
 15 33  1  0  0  0  0
M  END
> <PUBCHEM_BONDANNOTATIONS>
4  9  6
5  10  5

$$$$
