5288826
  Marvin  12300716493D          

 40 44  0  0  1  0            999 V2000
    0.7714    2.4281    0.7202 O   0  0  0  0  0  0  0  0  0  0  0  0
   -0.5239    4.1705   -1.0453 O   0  0  0  0  0  0  0  0  0  0  0  0
    3.6170    2.3585    1.2782 O   0  0  0  0  0  0  0  0  0  0  0  0
   -1.5870   -2.1930    0.2578 N   0  0  0  0  0  0  0  0  0  0  0  0
   -0.6019    0.5902    0.3232 C   0  0  1  0  0  0  0  0  0  0  0  0
   -1.2072   -0.0505   -0.9778 C   0  0  2  0  0  0  0  0  0  0  0  0
   -0.8653   -1.5874   -0.9156 C   0  0  1  0  0  0  0  0  0  0  0  0
   -0.5035    2.1536    0.3847 C   0  0  2  0  0  0  0  0  0  0  0  0
   -1.3122   -0.0220    1.5731 C   0  0  0  0  0  0  0  0  0  0  0  0
    0.8456    0.3246    0.3084 C   0  0  0  0  0  0  0  0  0  0  0  0
    0.6831   -1.8500   -0.8783 C   0  0  0  0  0  0  0  0  0  0  0  0
   -1.3245   -1.5718    1.5922 C   0  0  0  0  0  0  0  0  0  0  0  0
    1.4879   -0.8517   -0.1281 C   0  0  0  0  0  0  0  0  0  0  0  0
   -0.9900    2.8266   -0.9395 C   0  0  2  0  0  0  0  0  0  0  0  0
   -0.8133    0.7098   -2.1653 C   0  0  0  0  0  0  0  0  0  0  0  0
    1.5631    1.4540    0.6845 C   0  0  0  0  0  0  0  0  0  0  0  0
   -0.7012    2.0507   -2.1413 C   0  0  0  0  0  0  0  0  0  0  0  0
   -1.6654   -3.6825    0.3049 C   0  0  0  0  0  0  0  0  0  0  0  0
    2.8825   -0.9473    0.0741 C   0  0  0  0  0  0  0  0  0  0  0  0
    2.9564    1.3680    0.8822 C   0  0  0  0  0  0  0  0  0  0  0  0
    3.6050    0.1439    0.6064 C   0  0  0  0  0  0  0  0  0  0  0  0
   -2.2985    0.0480   -0.9548 H   0  0  0  0  0  0  0  0  0  0  0  0
   -1.2746   -2.0465   -1.8221 H   0  0  0  0  0  0  0  0  0  0  0  0
   -1.1077    2.5679    1.1989 H   0  0  0  0  0  0  0  0  0  0  0  0
   -2.3482    0.3310    1.5773 H   0  0  0  0  0  0  0  0  0  0  0  0
   -0.8582    0.3414    2.5002 H   0  0  0  0  0  0  0  0  0  0  0  0
    1.0509   -1.8173   -1.9080 H   0  0  0  0  0  0  0  0  0  0  0  0
    0.9094   -2.8512   -0.5110 H   0  0  0  0  0  0  0  0  0  0  0  0
   -2.0966   -1.8852    2.3022 H   0  0  0  0  0  0  0  0  0  0  0  0
   -0.3669   -1.9262    1.9853 H   0  0  0  0  0  0  0  0  0  0  0  0
   -2.0816    2.8985   -0.8971 H   0  0  0  0  0  0  0  0  0  0  0  0
   -0.6298    0.2255   -3.0137 H   0  0  0  0  0  0  0  0  0  0  0  0
   -0.4348    2.5265   -2.9726 H   0  0  0  0  0  0  0  0  0  0  0  0
   -1.9852   -4.0930   -0.6540 H   0  0  0  0  0  0  0  0  0  0  0  0
   -2.3961   -4.0132    1.0489 H   0  0  0  0  0  0  0  0  0  0  0  0
   -0.7056   -4.1344    0.5686 H   0  0  0  0  0  0  0  0  0  0  0  0
    3.3807   -1.8031   -0.1839 H   0  0  0  0  0  0  0  0  0  0  0  0
    4.6121    0.0458    0.7613 H   0  0  0  0  0  0  0  0  0  0  0  0
   -0.9099    4.6363   -0.2727 H   0  0  0  0  0  0  0  0  0  0  0  0
    3.2238    3.1270    1.4485 H   0  0  0  0  0  0  0  0  0  0  0  0
  1  8  1  0  0  0  0
  1 16  1  0  0  0  0
 14  2  1  0  0  0  0
  2 39  1  0  0  0  0
  3 20  1  0  0  0  0
  3 40  1  0  0  0  0
  4  7  1  0  0  0  0
  4 12  1  0  0  0  0
  4 18  1  0  0  0  0
  5  6  1  0  0  0  0
  5  8  1  0  0  0  0
  5  9  1  0  0  0  0
  5 10  1  0  0  0  0
  6  7  1  0  0  0  0
  6 15  1  0  0  0  0
  6 22  1  0  0  0  0
  7 11  1  0  0  0  0
  7 23  1  0  0  0  0
  8 14  1  0  0  0  0
  8 24  1  0  0  0  0
  9 12  1  0  0  0  0
  9 25  1  0  0  0  0
  9 26  1  0  0  0  0
 10 13  2  0  0  0  0
 10 16  1  0  0  0  0
 11 13  1  0  0  0  0
 11 27  1  0  0  0  0
 11 28  1  0  0  0  0
 12 29  1  0  0  0  0
 12 30  1  0  0  0  0
 13 19  1  0  0  0  0
 14 17  1  0  0  0  0
 14 31  1  0  0  0  0
 15 17  2  0  0  0  0
 15 32  1  0  0  0  0
 16 20  2  0  0  0  0
 17 33  1  0  0  0  0
 18 34  1  0  0  0  0
 18 35  1  0  0  0  0
 18 36  1  0  0  0  0
 19 21  2  0  0  0  0
 19 37  1  0  0  0  0
 20 21  1  0  0  0  0
 21 38  1  0  0  0  0
M  END
> <PUBCHEM_BONDANNOTATIONS>
10  13  8
10  16  8
13  19  8
16  20  8
19  21  8
14  2  6
20  21  8
5  9  5
6  22  5
7  23  6
8  24  5

$$$$
