5366546
  Marvin  12300716483D          

 56 55  0  0  1  0            999 V2000
    6.7078   -1.2977    2.3289 O   0  0  0  0  0  0  0  0  0  0  0  0
   -5.6365   -0.0845   -2.1213 O   0  0  0  0  0  0  0  0  0  0  0  0
   -5.9093    2.0488   -2.2543 O   0  0  0  0  0  0  0  0  0  0  0  0
    3.1275   -0.6591    0.9444 C   0  0  0  0  0  0  0  0  0  0  0  0
    4.6694   -0.6737    1.0690 C   0  0  0  0  0  0  0  0  0  0  0  0
    2.5636    0.1320   -0.2601 C   0  0  0  0  0  0  0  0  0  0  0  0
    5.2588   -1.3349    2.3623 C   0  0  2  0  0  0  0  0  0  0  0  0
    1.0072    0.2270   -0.2963 C   0  0  2  0  0  0  0  0  0  0  0  0
    0.5457    0.8728   -1.6412 C   0  0  0  0  0  0  0  0  0  0  0  0
    4.7322   -0.6921    3.6850 C   0  0  0  0  0  0  0  0  0  0  0  0
    4.9367   -2.8602    2.3894 C   0  0  0  0  0  0  0  0  0  0  0  0
    0.4087    0.9356    0.9614 C   0  0  0  0  0  0  0  0  0  0  0  0
   -0.8999    0.9096   -1.7506 C   0  0  0  0  0  0  0  0  0  0  0  0
    7.4511   -0.0651    2.3186 C   0  0  0  0  0  0  0  0  0  0  0  0
   -1.6446    2.0284   -1.6737 C   0  0  0  0  0  0  0  0  0  0  0  0
   -3.0176    2.1170   -1.6088 C   0  0  0  0  0  0  0  0  0  0  0  0
   -3.5006    3.2566   -0.8188 C   0  0  0  0  0  0  0  0  0  0  0  0
   -3.8253    1.1905   -2.1821 C   0  0  0  0  0  0  0  0  0  0  0  0
   -5.1752    1.0714   -2.1860 C   0  0  0  0  0  0  0  0  0  0  0  0
   -6.8706   -0.6131   -2.0485 C   0  0  1  0  0  0  0  0  0  0  0  0
   -7.0826   -1.6164   -3.2053 C   0  0  0  0  0  0  0  0  0  0  0  0
   -7.0235   -1.3075   -0.6741 C   0  0  0  0  0  0  0  0  0  0  0  0
    2.7419   -1.6796    0.8965 H   0  0  0  0  0  0  0  0  0  0  0  0
    2.7528   -0.1963    1.8533 H   0  0  0  0  0  0  0  0  0  0  0  0
    5.0881   -1.1619    0.1840 H   0  0  0  0  0  0  0  0  0  0  0  0
    4.9910    0.3691    1.0274 H   0  0  0  0  0  0  0  0  0  0  0  0
    2.9236   -0.3609   -1.1686 H   0  0  0  0  0  0  0  0  0  0  0  0
    2.9826    1.1426   -0.2580 H   0  0  0  0  0  0  0  0  0  0  0  0
    0.6287   -0.8016   -0.2854 H   0  0  0  0  0  0  0  0  0  0  0  0
    0.9213    0.2936   -2.4899 H   0  0  0  0  0  0  0  0  0  0  0  0
    0.9904    1.8689   -1.7302 H   0  0  0  0  0  0  0  0  0  0  0  0
    5.2950   -1.0557    4.5465 H   0  0  0  0  0  0  0  0  0  0  0  0
    4.8211    0.3953    3.6593 H   0  0  0  0  0  0  0  0  0  0  0  0
    3.6815   -0.9248    3.8707 H   0  0  0  0  0  0  0  0  0  0  0  0
    5.4327   -3.3568    3.2260 H   0  0  0  0  0  0  0  0  0  0  0  0
    5.2662   -3.3529    1.4719 H   0  0  0  0  0  0  0  0  0  0  0  0
    3.8669   -3.0515    2.4981 H   0  0  0  0  0  0  0  0  0  0  0  0
    0.8243    1.9379    1.0802 H   0  0  0  0  0  0  0  0  0  0  0  0
   -0.6767    1.0218    0.9124 H   0  0  0  0  0  0  0  0  0  0  0  0
    0.5906    0.3728    1.8768 H   0  0  0  0  0  0  0  0  0  0  0  0
   -1.3377    0.0198   -1.8176 H   0  0  0  0  0  0  0  0  0  0  0  0
    8.5100   -0.3145    2.3684 H   0  0  0  0  0  0  0  0  0  0  0  0
    7.2946    0.5008    1.3999 H   0  0  0  0  0  0  0  0  0  0  0  0
    7.2192    0.5668    3.1766 H   0  0  0  0  0  0  0  0  0  0  0  0
   -1.1278    2.8776   -1.5941 H   0  0  0  0  0  0  0  0  0  0  0  0
   -3.0592    3.2379    0.1823 H   0  0  0  0  0  0  0  0  0  0  0  0
   -3.2197    4.1995   -1.2946 H   0  0  0  0  0  0  0  0  0  0  0  0
   -4.5736    3.2995   -0.6468 H   0  0  0  0  0  0  0  0  0  0  0  0
   -3.3880    0.4513   -2.6858 H   0  0  0  0  0  0  0  0  0  0  0  0
   -7.6485    0.1550   -2.1227 H   0  0  0  0  0  0  0  0  0  0  0  0
   -6.9643   -1.1253   -4.1728 H   0  0  0  0  0  0  0  0  0  0  0  0
   -8.0898   -2.0374   -3.1616 H   0  0  0  0  0  0  0  0  0  0  0  0
   -6.3661   -2.4394   -3.1480 H   0  0  0  0  0  0  0  0  0  0  0  0
   -6.8752   -0.5925    0.1371 H   0  0  0  0  0  0  0  0  0  0  0  0
   -8.0244   -1.7315   -0.5709 H   0  0  0  0  0  0  0  0  0  0  0  0
   -6.2946   -2.1131   -0.5580 H   0  0  0  0  0  0  0  0  0  0  0  0
  1  7  1  0  0  0  0
  1 14  1  0  0  0  0
  2 19  1  0  0  0  0
  2 20  1  0  0  0  0
  3 19  2  0  0  0  0
  4  5  1  0  0  0  0
  4  6  1  0  0  0  0
  4 23  1  0  0  0  0
  4 24  1  0  0  0  0
  5  7  1  0  0  0  0
  5 25  1  0  0  0  0
  5 26  1  0  0  0  0
  6  8  1  0  0  0  0
  6 27  1  0  0  0  0
  6 28  1  0  0  0  0
  7 10  1  0  0  0  0
  7 11  1  0  0  0  0
  8  9  1  0  0  0  0
  8 12  1  0  0  0  0
  8 29  1  0  0  0  0
  9 13  1  0  0  0  0
  9 30  1  0  0  0  0
  9 31  1  0  0  0  0
 10 32  1  0  0  0  0
 10 33  1  0  0  0  0
 10 34  1  0  0  0  0
 11 35  1  0  0  0  0
 11 36  1  0  0  0  0
 11 37  1  0  0  0  0
 12 38  1  0  0  0  0
 12 39  1  0  0  0  0
 12 40  1  0  0  0  0
 13 15  2  0  0  0  0
 13 41  1  0  0  0  0
 14 42  1  0  0  0  0
 14 43  1  0  0  0  0
 14 44  1  0  0  0  0
 15 16  1  0  0  0  0
 15 45  1  0  0  0  0
 16 17  1  0  0  0  0
 16 18  2  0  0  0  0
 17 46  1  0  0  0  0
 17 47  1  0  0  0  0
 17 48  1  0  0  0  0
 18 19  1  0  0  0  0
 18 49  1  0  0  0  0
 20 21  1  0  0  0  0
 20 22  1  0  0  0  0
 20 50  1  0  0  0  0
 21 51  1  0  0  0  0
 21 52  1  0  0  0  0
 21 53  1  0  0  0  0
 22 54  1  0  0  0  0
 22 55  1  0  0  0  0
 22 56  1  0  0  0  0
M  END
> <PUBCHEM_BONDANNOTATIONS>
8  12  3

$$$$
