529
  Marvin  12300703363D          

 14 13  0  0  0  0            999 V2000
    1.2215   -1.0717   -0.0406 P   0  0  1  0  0  0  0  0  0  0  0  0
    0.5160    0.2048   -0.0621 O   0  0  0  0  0  0  0  0  0  0  0  0
    2.6473   -0.8632   -0.0496 O   0  0  0  0  0  0  0  0  0  0  0  0
    0.8735   -1.8151    1.1453 O   0  0  0  0  0  0  0  0  0  0  0  0
    0.8810   -1.8673   -1.1934 O   0  0  0  0  0  0  0  0  0  0  0  0
   -2.3701    2.1384   -0.0311 O   0  0  0  0  0  0  0  0  0  0  0  0
   -0.3713    2.7336   -0.0367 O   0  0  0  0  0  0  0  0  0  0  0  0
   -0.8088    0.4257   -0.0450 C   0  0  0  0  0  0  0  0  0  0  0  0
   -1.1856    1.8213   -0.0380 C   0  0  0  0  0  0  0  0  0  0  0  0
   -1.2701   -0.0287   -0.9276 H   0  0  0  0  0  0  0  0  0  0  0  0
   -1.2520   -0.0265    0.8483 H   0  0  0  0  0  0  0  0  0  0  0  0
    3.0410   -0.5047   -0.7508 H   0  0  0  0  0  0  0  0  0  0  0  0
    1.0775   -2.6683    1.2127 H   0  0  0  0  0  0  0  0  0  0  0  0
   -2.9999    1.5217   -0.0315 H   0  0  0  0  0  0  0  0  0  0  0  0
  1  2  1  0  0  0  0
  1  3  1  0  0  0  0
  1  4  1  0  0  0  0
  1  5  2  0  0  0  0
  2  8  1  0  0  0  0
  3 12  1  0  0  0  0
  4 13  1  0  0  0  0
  6  9  1  0  0  0  0
  6 14  1  0  0  0  0
  7  9  2  0  0  0  0
  8  9  1  0  0  0  0
  8 10  1  0  0  0  0
  8 11  1  0  0  0  0
M  END
$$$$
