6466
  Marvin  12300703363D          

 47 51  0  0  1  0            999 V2000
    2.1542   -0.8117   -0.0474 O   0  0  0  0  0  0  0  0  0  0  0  0
   -2.1836    1.1295   -3.9247 O   0  0  0  0  0  0  0  0  0  0  0  0
    1.3820   -1.2482    4.1145 O   0  0  0  0  0  0  0  0  0  0  0  0
    3.9756    0.1303    0.6121 O   0  0  0  0  0  0  0  0  0  0  0  0
   -0.7710    3.3715    0.6867 O   0  0  0  0  0  0  0  0  0  0  0  0
   -0.5967    2.3244    2.4533 O   0  0  0  0  0  0  0  0  0  0  0  0
   -0.7685    0.5241   -0.5951 C   0  0  1  0  0  0  0  0  0  0  0  0
   -0.2185   -0.9603   -0.7098 C   0  0  2  0  0  0  0  0  0  0  0  0
    0.6412   -0.0020    1.3511 C   0  0  2  0  0  0  0  0  0  0  0  0
    0.9101   -1.1496    0.3405 C   0  0  2  0  0  0  0  0  0  0  0  0
    0.1185    1.2037    0.5045 C   0  0  2  0  0  0  0  0  0  0  0  0
   -0.7546    1.2980   -1.9512 C   0  0  0  0  0  0  0  0  0  0  0  0
    2.0518   -0.0346    2.0348 C   0  0  1  0  0  0  0  0  0  0  0  0
   -1.7228    0.4167   -2.7742 C   0  0  2  0  0  0  0  0  0  0  0  0
   -2.3260    0.4859   -0.4324 C   0  0  0  0  0  0  0  0  0  0  0  0
    0.0662   -1.4339   -2.1670 C   0  0  0  0  0  0  0  0  0  0  0  0
   -0.9958   -0.9111   -3.1880 C   0  0  0  0  0  0  0  0  0  0  0  0
   -2.7878    0.2277   -1.7894 C   0  0  0  0  0  0  0  0  0  0  0  0
    0.9888   -2.4614    1.0197 C   0  0  0  0  0  0  0  0  0  0  0  0
    2.1240   -1.3635    2.8988 C   0  0  2  0  0  0  0  0  0  0  0  0
    2.8194   -0.2169    0.8111 C   0  0  0  0  0  0  0  0  0  0  0  0
   -0.4414    2.3296    1.2414 C   0  0  0  0  0  0  0  0  0  0  0  0
    2.4617    1.2312    2.8400 C   0  0  0  0  0  0  0  0  0  0  0  0
    1.5789   -2.5506    2.2273 C   0  0  0  0  0  0  0  0  0  0  0  0
   -4.0456   -0.1331   -2.0866 C   0  0  0  0  0  0  0  0  0  0  0  0
   -1.0026   -1.6578   -0.3923 H   0  0  0  0  0  0  0  0  0  0  0  0
   -0.1562   -0.2653    2.0587 H   0  0  0  0  0  0  0  0  0  0  0  0
    0.9923    1.6342    0.0034 H   0  0  0  0  0  0  0  0  0  0  0  0
    0.2395    1.3707   -2.4012 H   0  0  0  0  0  0  0  0  0  0  0  0
   -1.1221    2.3284   -1.8667 H   0  0  0  0  0  0  0  0  0  0  0  0
   -2.6617   -0.2747    0.2795 H   0  0  0  0  0  0  0  0  0  0  0  0
   -2.7428    1.4356   -0.0876 H   0  0  0  0  0  0  0  0  0  0  0  0
    1.0502   -1.0600   -2.4631 H   0  0  0  0  0  0  0  0  0  0  0  0
    0.1289   -2.5249   -2.2158 H   0  0  0  0  0  0  0  0  0  0  0  0
   -1.7353   -1.6895   -3.3911 H   0  0  0  0  0  0  0  0  0  0  0  0
   -0.4755   -0.7457   -4.1370 H   0  0  0  0  0  0  0  0  0  0  0  0
    0.6299   -3.2776    0.5809 H   0  0  0  0  0  0  0  0  0  0  0  0
    3.1615   -1.5718    3.1764 H   0  0  0  0  0  0  0  0  0  0  0  0
    1.7538    1.4309    3.6458 H   0  0  0  0  0  0  0  0  0  0  0  0
    3.4479    1.0945    3.2903 H   0  0  0  0  0  0  0  0  0  0  0  0
    2.5085    2.1195    2.2075 H   0  0  0  0  0  0  0  0  0  0  0  0
    1.6392   -3.4358    2.6758 H   0  0  0  0  0  0  0  0  0  0  0  0
   -1.3867    1.2863   -4.4739 H   0  0  0  0  0  0  0  0  0  0  0  0
   -4.7326   -0.2430   -1.3792 H   0  0  0  0  0  0  0  0  0  0  0  0
   -4.3251   -0.2984   -3.0241 H   0  0  0  0  0  0  0  0  0  0  0  0
    1.8078   -0.5289    4.6249 H   0  0  0  0  0  0  0  0  0  0  0  0
   -0.6793    3.4775   -0.1814 H   0  0  0  0  0  0  0  0  0  0  0  0
 10  1  1  0  0  0  0
  1 21  1  0  0  0  0
 14  2  1  0  0  0  0
  2 43  1  0  0  0  0
 20  3  1  0  0  0  0
  3 46  1  0  0  0  0
  4 21  2  0  0  0  0
  5 22  1  0  0  0  0
  5 47  1  0  0  0  0
  6 22  2  0  0  0  0
  7  8  1  0  0  0  0
  7 11  1  0  0  0  0
  7 12  1  0  0  0  0
  7 15  1  0  0  0  0
  8 10  1  0  0  0  0
  8 16  1  0  0  0  0
  8 26  1  0  0  0  0
  9 10  1  0  0  0  0
  9 11  1  0  0  0  0
  9 13  1  0  0  0  0
  9 27  1  0  0  0  0
 10 19  1  0  0  0  0
 11 22  1  0  0  0  0
 11 28  1  0  0  0  0
 12 14  1  0  0  0  0
 12 29  1  0  0  0  0
 12 30  1  0  0  0  0
 13 20  1  0  0  0  0
 13 21  1  0  0  0  0
 13 23  1  0  0  0  0
 14 17  1  0  0  0  0
 14 18  1  0  0  0  0
 15 18  1  0  0  0  0
 15 31  1  0  0  0  0
 15 32  1  0  0  0  0
 16 17  1  0  0  0  0
 16 33  1  0  0  0  0
 16 34  1  0  0  0  0
 17 35  1  0  0  0  0
 17 36  1  0  0  0  0
 18 25  2  0  0  0  0
 19 24  2  0  0  0  0
 19 37  1  0  0  0  0
 20 24  1  0  0  0  0
 20 38  1  0  0  0  0
 23 39  1  0  0  0  0
 23 40  1  0  0  0  0
 23 41  1  0  0  0  0
 24 42  1  0  0  0  0
 25 44  1  0  0  0  0
 25 45  1  0  0  0  0
M  END
> <PUBCHEM_BONDANNOTATIONS>
10  1  5
11  22  6
13  23  5
14  2  5
20  3  6
7  12  5
8  26  6
9  27  6

$$$$
