6557
  Marvin  12300703363D          

 13 12  0  0  0  0            999 V2000
    0.3345   -0.1139   -0.0845 C   0  0  0  0  0  0  0  0  0  0  0  0
    1.0094   -1.2451    0.5529 C   0  0  0  0  0  0  0  0  0  0  0  0
   -1.0371   -0.0887   -0.0548 C   0  0  0  0  0  0  0  0  0  0  0  0
    1.0649    0.8485   -0.6803 C   0  0  0  0  0  0  0  0  0  0  0  0
   -1.8333    0.9907   -0.0338 C   0  0  0  0  0  0  0  0  0  0  0  0
    0.7327   -1.3016    1.6086 H   0  0  0  0  0  0  0  0  0  0  0  0
    0.7275   -2.1854    0.0733 H   0  0  0  0  0  0  0  0  0  0  0  0
    2.1013   -1.1970    0.5240 H   0  0  0  0  0  0  0  0  0  0  0  0
   -1.5135   -0.9631   -0.0289 H   0  0  0  0  0  0  0  0  0  0  0  0
    2.0567    0.8276   -0.6894 H   0  0  0  0  0  0  0  0  0  0  0  0
    0.6487    1.6193   -1.1476 H   0  0  0  0  0  0  0  0  0  0  0  0
   -1.4710    1.9148   -0.0229 H   0  0  0  0  0  0  0  0  0  0  0  0
   -2.8209    0.8939   -0.0167 H   0  0  0  0  0  0  0  0  0  0  0  0
  1  2  1  0  0  0  0
  1  3  1  0  0  0  0
  1  4  2  0  0  0  0
  2  6  1  0  0  0  0
  2  7  1  0  0  0  0
  2  8  1  0  0  0  0
  3  5  2  0  0  0  0
  3  9  1  0  0  0  0
  4 10  1  0  0  0  0
  4 11  1  0  0  0  0
  5 12  1  0  0  0  0
  5 13  1  0  0  0  0
M  END
$$$$
