8223
  Marvin  12300703363D          

 78 85  0  0  1  0            999 V2000
    0.0617   -2.9808   -1.4777 O   0  0  0  0  0  0  0  0  0  0  0  0
   -0.3083   -0.6490   -1.5401 O   0  0  0  0  0  0  0  0  0  0  0  0
   -4.1809   -2.0004   -4.0464 O   0  0  0  0  0  0  0  0  0  0  0  0
   -2.8081   -3.7545   -0.0050 O   0  0  0  0  0  0  0  0  0  0  0  0
    2.1518   -3.0880    0.3985 O   0  0  0  0  0  0  0  0  0  0  0  0
   -2.0559   -1.4142   -3.9680 N   0  0  0  0  0  0  0  0  0  0  0  0
   -2.0379   -2.2045   -1.4137 N   0  0  0  0  0  0  0  0  0  0  0  0
    0.0611   -2.6598    0.8176 N   0  0  0  0  0  0  0  0  0  0  0  0
    3.9628   -0.1237    2.6186 N   0  0  0  0  0  0  0  0  0  0  0  0
    2.9363    5.5906    1.3243 N   0  0  0  0  0  0  0  0  0  0  0  0
   -0.8806   -2.0391   -3.5260 C   0  0  2  0  0  0  0  0  0  0  0  0
   -0.7797   -1.9317   -1.9690 C   0  0  2  0  0  0  0  0  0  0  0  0
    0.2703   -1.4259   -4.3571 C   0  0  0  0  0  0  0  0  0  0  0  0
   -3.2396   -1.6145   -1.9189 C   0  0  2  0  0  0  0  0  0  0  0  0
   -1.8747   -0.4179   -4.9218 C   0  0  0  0  0  0  0  0  0  0  0  0
   -0.4525   -0.6395   -5.4644 C   0  0  0  0  0  0  0  0  0  0  0  0
   -0.4985   -3.4253   -0.2347 C   0  0  1  0  0  0  0  0  0  0  0  0
   -3.1980   -1.6908   -3.3850 C   0  0  0  0  0  0  0  0  0  0  0  0
   -1.8872   -3.1278   -0.5155 C   0  0  0  0  0  0  0  0  0  0  0  0
   -3.4853   -0.1222   -1.5016 C   0  0  0  0  0  0  0  0  0  0  0  0
   -0.2560   -4.9533   -0.0662 C   0  0  0  0  0  0  0  0  0  0  0  0
    1.8361   -1.4177    1.9791 C   0  0  1  0  0  0  0  0  0  0  0  0
    3.5326    0.9547    1.6599 C   0  0  1  0  0  0  0  0  0  0  0  0
    1.3370   -2.4279    1.0336 C   0  0  0  0  0  0  0  0  0  0  0  0
   -3.6163    0.2707   -0.0691 C   0  0  0  0  0  0  0  0  0  0  0  0
    3.3935   -1.4356    2.1956 C   0  0  0  0  0  0  0  0  0  0  0  0
    2.0499    1.0690    1.5543 C   0  0  0  0  0  0  0  0  0  0  0  0
    4.4147    2.2562    1.7715 C   0  0  0  0  0  0  0  0  0  0  0  0
    1.3270   -0.0683    1.6976 C   0  0  0  0  0  0  0  0  0  0  0  0
    1.4568    2.3334    1.3101 C   0  0  0  0  0  0  0  0  0  0  0  0
    3.6544    3.4957    1.5694 C   0  0  0  0  0  0  0  0  0  0  0  0
    2.2885    3.4719    1.3527 C   0  0  0  0  0  0  0  0  0  0  0  0
    3.8243    0.1341    4.0813 C   0  0  0  0  0  0  0  0  0  0  0  0
   -3.7207    1.6423    0.2743 C   0  0  0  0  0  0  0  0  0  0  0  0
   -3.6436   -0.6562    0.9970 C   0  0  0  0  0  0  0  0  0  0  0  0
    1.8670    4.7896    1.1859 C   0  0  0  0  0  0  0  0  0  0  0  0
    4.0295    4.8387    1.5556 C   0  0  0  0  0  0  0  0  0  0  0  0
    0.0945    2.6313    1.0206 C   0  0  0  0  0  0  0  0  0  0  0  0
    0.5121    5.0477    0.9254 C   0  0  0  0  0  0  0  0  0  0  0  0
   -3.7805    2.0608    1.6185 C   0  0  0  0  0  0  0  0  0  0  0  0
   -3.6555   -0.2565    2.3420 C   0  0  0  0  0  0  0  0  0  0  0  0
   -0.3732    3.9541    0.8343 C   0  0  0  0  0  0  0  0  0  0  0  0
   -3.7222    1.1101    2.6529 C   0  0  0  0  0  0  0  0  0  0  0  0
   -0.9599   -3.1005   -3.7970 H   0  0  0  0  0  0  0  0  0  0  0  0
    0.9230   -2.1958   -4.7792 H   0  0  0  0  0  0  0  0  0  0  0  0
    0.8988   -0.7522   -3.7703 H   0  0  0  0  0  0  0  0  0  0  0  0
   -4.1208   -2.1710   -1.5808 H   0  0  0  0  0  0  0  0  0  0  0  0
   -2.6124   -0.4495   -5.7285 H   0  0  0  0  0  0  0  0  0  0  0  0
   -1.9415    0.5577   -4.4290 H   0  0  0  0  0  0  0  0  0  0  0  0
    0.0468    0.3076   -5.6867 H   0  0  0  0  0  0  0  0  0  0  0  0
   -0.4952   -1.2316   -6.3825 H   0  0  0  0  0  0  0  0  0  0  0  0
   -4.3999    0.2254   -1.9949 H   0  0  0  0  0  0  0  0  0  0  0  0
   -2.6723    0.4842   -1.9121 H   0  0  0  0  0  0  0  0  0  0  0  0
   -0.2854   -0.6784   -0.5615 H   0  0  0  0  0  0  0  0  0  0  0  0
   -0.5439   -2.2581    1.4092 H   0  0  0  0  0  0  0  0  0  0  0  0
    0.8044   -5.2021   -0.0491 H   0  0  0  0  0  0  0  0  0  0  0  0
   -0.6960   -5.3072    0.8694 H   0  0  0  0  0  0  0  0  0  0  0  0
   -0.7029   -5.5188   -0.8874 H   0  0  0  0  0  0  0  0  0  0  0  0
    1.4107   -1.6792    2.9539 H   0  0  0  0  0  0  0  0  0  0  0  0
    3.7920    0.6058    0.6510 H   0  0  0  0  0  0  0  0  0  0  0  0
    3.6740   -2.2470    2.8745 H   0  0  0  0  0  0  0  0  0  0  0  0
    3.9257   -1.6731    1.2695 H   0  0  0  0  0  0  0  0  0  0  0  0
    5.2322    2.2373    1.0439 H   0  0  0  0  0  0  0  0  0  0  0  0
    4.8918    2.3630    2.7428 H   0  0  0  0  0  0  0  0  0  0  0  0
    0.3366   -0.0168    1.6520 H   0  0  0  0  0  0  0  0  0  0  0  0
    4.1609   -0.7251    4.6647 H   0  0  0  0  0  0  0  0  0  0  0  0
    2.7931    0.3567    4.3590 H   0  0  0  0  0  0  0  0  0  0  0  0
    4.4517    0.9589    4.4128 H   0  0  0  0  0  0  0  0  0  0  0  0
   -3.7510    2.3595   -0.4552 H   0  0  0  0  0  0  0  0  0  0  0  0
   -3.6659   -1.6514    0.8271 H   0  0  0  0  0  0  0  0  0  0  0  0
    4.9749    5.1973    1.6985 H   0  0  0  0  0  0  0  0  0  0  0  0
   -0.6014    1.8904    0.9327 H   0  0  0  0  0  0  0  0  0  0  0  0
    2.9253    6.5592    1.2673 H   0  0  0  0  0  0  0  0  0  0  0  0
    0.1816    6.0065    0.8014 H   0  0  0  0  0  0  0  0  0  0  0  0
   -3.8611    3.0536    1.8472 H   0  0  0  0  0  0  0  0  0  0  0  0
   -3.6223   -0.9600    3.0840 H   0  0  0  0  0  0  0  0  0  0  0  0
   -1.3610    4.1241    0.6320 H   0  0  0  0  0  0  0  0  0  0  0  0
   -3.7372    1.4049    3.6311 H   0  0  0  0  0  0  0  0  0  0  0  0
  1 12  1  0  0  0  0
  1 17  1  0  0  0  0
 12  2  1  0  0  0  0
  2 54  1  0  0  0  0
  3 18  2  0  0  0  0
  4 19  2  0  0  0  0
  5 24  2  0  0  0  0
  6 11  1  0  0  0  0
  6 15  1  0  0  0  0
  6 18  1  0  0  0  0
  7 12  1  0  0  0  0
  7 14  1  0  0  0  0
  7 19  1  0  0  0  0
 17  8  1  0  0  0  0
  8 24  1  0  0  0  0
  8 55  1  0  0  0  0
  9 23  1  0  0  0  0
  9 26  1  0  0  0  0
  9 33  1  0  0  0  0
 10 36  1  0  0  0  0
 10 37  1  0  0  0  0
 10 73  1  0  0  0  0
 11 12  1  0  0  0  0
 11 13  1  0  0  0  0
 11 44  1  0  0  0  0
 13 16  1  0  0  0  0
 13 45  1  0  0  0  0
 13 46  1  0  0  0  0
 14 18  1  0  0  0  0
 14 20  1  0  0  0  0
 14 47  1  0  0  0  0
 15 16  1  0  0  0  0
 15 48  1  0  0  0  0
 15 49  1  0  0  0  0
 16 50  1  0  0  0  0
 16 51  1  0  0  0  0
 17 19  1  0  0  0  0
 17 21  1  0  0  0  0
 20 25  1  0  0  0  0
 20 52  1  0  0  0  0
 20 53  1  0  0  0  0
 21 56  1  0  0  0  0
 21 57  1  0  0  0  0
 21 58  1  0  0  0  0
 22 24  1  0  0  0  0
 22 26  1  0  0  0  0
 22 29  1  0  0  0  0
 22 59  1  0  0  0  0
 23 27  1  0  0  0  0
 23 28  1  0  0  0  0
 23 60  1  0  0  0  0
 25 34  2  0  0  0  0
 25 35  1  0  0  0  0
 26 61  1  0  0  0  0
 26 62  1  0  0  0  0
 27 29  2  0  0  0  0
 27 30  1  0  0  0  0
 28 31  1  0  0  0  0
 28 63  1  0  0  0  0
 28 64  1  0  0  0  0
 29 65  1  0  0  0  0
 30 32  2  0  0  0  0
 30 38  1  0  0  0  0
 31 32  1  0  0  0  0
 31 37  2  0  0  0  0
 32 36  1  0  0  0  0
 33 66  1  0  0  0  0
 33 67  1  0  0  0  0
 33 68  1  0  0  0  0
 34 40  1  0  0  0  0
 34 69  1  0  0  0  0
 35 41  2  0  0  0  0
 35 70  1  0  0  0  0
 36 39  2  0  0  0  0
 37 71  1  0  0  0  0
 38 42  2  0  0  0  0
 38 72  1  0  0  0  0
 39 42  1  0  0  0  0
 39 74  1  0  0  0  0
 40 43  2  0  0  0  0
 40 75  1  0  0  0  0
 41 43  1  0  0  0  0
 41 76  1  0  0  0  0
 42 77  1  0  0  0  0
 43 78  1  0  0  0  0
M  END
> <PUBCHEM_BONDANNOTATIONS>
10  36  8
10  37  8
11  44  5
14  20  6
12  2  6
22  24  5
23  60  5
25  34  8
25  35  8
30  32  8
30  38  8
31  32  8
31  37  8
32  36  8
34  40  8
35  41  8
36  39  8
38  42  8
39  42  8
40  43  8
41  43  8
17  8  6

$$$$
