94175
  Marvin  01040800003D          

 48 51  0  0  1  0            999 V2000
    0.7098   -1.5877   -1.1428 O   0  0  0  0  0  0  0  0  0  0  0  0
    1.2261   -4.7245    2.6038 O   0  0  0  0  0  0  0  0  0  0  0  0
   -0.4520    1.8870   -0.1733 N   0  0  0  0  0  0  0  0  0  0  0  0
   -3.3155   -1.8850    1.8026 N   0  0  0  0  0  0  0  0  0  0  0  0
    1.7331    2.7841   -1.2833 C   0  0  1  0  0  0  0  0  0  0  0  0
    0.1525    0.7926   -1.0301 C   0  0  1  0  0  0  0  0  0  0  0  0
    1.5166    1.2772   -1.6453 C   0  0  0  0  0  0  0  0  0  0  0  0
    0.4852    3.6287   -1.7456 C   0  0  2  0  0  0  0  0  0  0  0  0
    1.8288    2.8426    0.2814 C   0  0  0  0  0  0  0  0  0  0  0  0
   -0.8020    3.0611   -1.0392 C   0  0  0  0  0  0  0  0  0  0  0  0
    0.4857    2.3451    0.9081 C   0  0  0  0  0  0  0  0  0  0  0  0
    0.2099   -0.5676   -0.2754 C   0  0  1  0  0  0  0  0  0  0  0  0
    0.3248    3.6906   -3.1969 C   0  0  0  0  0  0  0  0  0  0  0  0
   -1.0208   -1.0586    0.4310 C   0  0  0  0  0  0  0  0  0  0  0  0
    0.4329    4.7883   -3.9513 C   0  0  0  0  0  0  0  0  0  0  0  0
   -0.9552   -2.1243    1.3763 C   0  0  0  0  0  0  0  0  0  0  0  0
   -2.2957   -0.4843    0.1794 C   0  0  0  0  0  0  0  0  0  0  0  0
   -2.1439   -2.5146    2.0609 C   0  0  0  0  0  0  0  0  0  0  0  0
    0.2220   -2.8573    1.6650 C   0  0  0  0  0  0  0  0  0  0  0  0
   -3.4318   -0.8972    0.8904 C   0  0  0  0  0  0  0  0  0  0  0  0
   -2.1441   -3.5673    2.9961 C   0  0  0  0  0  0  0  0  0  0  0  0
    0.2084   -3.9747    2.5225 C   0  0  0  0  0  0  0  0  0  0  0  0
   -0.9674   -4.2977    3.2227 C   0  0  0  0  0  0  0  0  0  0  0  0
    1.5295   -5.6597    1.6929 C   0  0  0  0  0  0  0  0  0  0  0  0
    2.6593    3.1605   -1.7274 H   0  0  0  0  0  0  0  0  0  0  0  0
   -0.5143    0.5950   -1.8782 H   0  0  0  0  0  0  0  0  0  0  0  0
    2.3634    0.6872   -1.2828 H   0  0  0  0  0  0  0  0  0  0  0  0
    1.5277    1.1371   -2.7295 H   0  0  0  0  0  0  0  0  0  0  0  0
    0.6414    4.6439   -1.3627 H   0  0  0  0  0  0  0  0  0  0  0  0
    2.6570    2.2222    0.6380 H   0  0  0  0  0  0  0  0  0  0  0  0
    2.0467    3.8606    0.6130 H   0  0  0  0  0  0  0  0  0  0  0  0
   -1.2864    3.8362   -0.4371 H   0  0  0  0  0  0  0  0  0  0  0  0
   -1.5848    2.7532   -1.7405 H   0  0  0  0  0  0  0  0  0  0  0  0
    0.0208    3.1413    1.4968 H   0  0  0  0  0  0  0  0  0  0  0  0
    0.6620    1.5491    1.6346 H   0  0  0  0  0  0  0  0  0  0  0  0
    0.9870   -0.4312    0.4789 H   0  0  0  0  0  0  0  0  0  0  0  0
    0.1021    2.8450   -3.6721 H   0  0  0  0  0  0  0  0  0  0  0  0
    0.0157   -1.7436   -1.8152 H   0  0  0  0  0  0  0  0  0  0  0  0
    0.6462    5.6720   -3.5555 H   0  0  0  0  0  0  0  0  0  0  0  0
    0.2988    4.7382   -4.9337 H   0  0  0  0  0  0  0  0  0  0  0  0
   -2.4457    0.2442   -0.5181 H   0  0  0  0  0  0  0  0  0  0  0  0
    1.1174   -2.6247    1.2320 H   0  0  0  0  0  0  0  0  0  0  0  0
   -4.3423   -0.4647    0.7233 H   0  0  0  0  0  0  0  0  0  0  0  0
   -2.9996   -3.8251    3.4939 H   0  0  0  0  0  0  0  0  0  0  0  0
   -0.9782   -5.0850    3.8755 H   0  0  0  0  0  0  0  0  0  0  0  0
    2.4799   -6.1204    1.9571 H   0  0  0  0  0  0  0  0  0  0  0  0
    1.6250   -5.2468    0.6839 H   0  0  0  0  0  0  0  0  0  0  0  0
    0.7643   -6.4407    1.6760 H   0  0  0  0  0  0  0  0  0  0  0  0
 12  1  1  0  0  0  0
  1 38  1  0  0  0  0
  2 22  1  0  0  0  0
  2 24  1  0  0  0  0
  3  6  1  0  0  0  0
  3 10  1  0  0  0  0
  3 11  1  0  0  0  0
  4 18  2  0  0  0  0
  4 20  1  0  0  0  0
  5  7  1  0  0  0  0
  5  8  1  0  0  0  0
  5  9  1  0  0  0  0
  5 25  1  0  0  0  0
  6  7  1  0  0  0  0
  6 12  1  0  0  0  0
  6 26  1  0  0  0  0
  7 27  1  0  0  0  0
  7 28  1  0  0  0  0
  8 10  1  0  0  0  0
  8 13  1  0  0  0  0
  8 29  1  0  0  0  0
  9 11  1  0  0  0  0
  9 30  1  0  0  0  0
  9 31  1  0  0  0  0
 10 32  1  0  0  0  0
 10 33  1  0  0  0  0
 11 34  1  0  0  0  0
 11 35  1  0  0  0  0
 12 14  1  0  0  0  0
 12 36  1  0  0  0  0
 13 15  2  0  0  0  0
 13 37  1  0  0  0  0
 14 16  2  0  0  0  0
 14 17  1  0  0  0  0
 15 39  1  0  0  0  0
 15 40  1  0  0  0  0
 16 18  1  0  0  0  0
 16 19  1  0  0  0  0
 17 20  2  0  0  0  0
 17 41  1  0  0  0  0
 18 21  1  0  0  0  0
 19 22  2  0  0  0  0
 19 42  1  0  0  0  0
 20 43  1  0  0  0  0
 21 23  2  0  0  0  0
 21 44  1  0  0  0  0
 22 23  1  0  0  0  0
 23 45  1  0  0  0  0
 24 46  1  0  0  0  0
 24 47  1  0  0  0  0
 24 48  1  0  0  0  0
M  END
> <PUBCHEM_BONDANNOTATIONS>
12  1  5
14  16  8
14  17  8
16  18  8
16  19  8
17  20  8
18  21  8
19  22  8
21  23  8
22  23  8
4  18  8
4  20  8
5  25  5
6  26  6
8  13  6

$$$$
