942
  Marvin  12300703363D          

 26 27  0  0  1  0            999 V2000
   -0.7135   -0.8615   -0.9073 N   0  0  0  0  0  0  0  0  0  0  0  0
    0.6705    3.2420    0.1491 N   0  0  0  0  0  0  0  0  0  0  0  0
   -0.1500   -0.4618    0.4084 C   0  0  2  0  0  0  0  0  0  0  0  0
   -1.3687   -0.5945    1.3562 C   0  0  0  0  0  0  0  0  0  0  0  0
   -2.2348   -1.7130    0.7355 C   0  0  0  0  0  0  0  0  0  0  0  0
   -1.5705   -2.0358   -0.6177 C   0  0  0  0  0  0  0  0  0  0  0  0
    0.5824    0.8432    0.3939 C   0  0  0  0  0  0  0  0  0  0  0  0
    0.2340   -1.0319   -2.0432 C   0  0  0  0  0  0  0  0  0  0  0  0
    1.9921    0.8707    0.5327 C   0  0  0  0  0  0  0  0  0  0  0  0
   -0.0528    2.0925    0.1919 C   0  0  0  0  0  0  0  0  0  0  0  0
    2.7216    2.0715    0.4750 C   0  0  0  0  0  0  0  0  0  0  0  0
    2.0197    3.2726    0.2826 C   0  0  0  0  0  0  0  0  0  0  0  0
    0.5483   -1.2504    0.7215 H   0  0  0  0  0  0  0  0  0  0  0  0
   -1.0603   -0.8477    2.3743 H   0  0  0  0  0  0  0  0  0  0  0  0
   -1.9562    0.3256    1.4139 H   0  0  0  0  0  0  0  0  0  0  0  0
   -3.2662   -1.3770    0.5916 H   0  0  0  0  0  0  0  0  0  0  0  0
   -2.2631   -2.5998    1.3756 H   0  0  0  0  0  0  0  0  0  0  0  0
   -2.3126   -2.1981   -1.4027 H   0  0  0  0  0  0  0  0  0  0  0  0
   -0.9708   -2.9486   -0.5232 H   0  0  0  0  0  0  0  0  0  0  0  0
   -0.3017   -1.2960   -2.9566 H   0  0  0  0  0  0  0  0  0  0  0  0
    0.7613   -0.0992   -2.2500 H   0  0  0  0  0  0  0  0  0  0  0  0
    0.9785   -1.8056   -1.8418 H   0  0  0  0  0  0  0  0  0  0  0  0
    2.5184    0.0038    0.6650 H   0  0  0  0  0  0  0  0  0  0  0  0
   -1.0636    2.1663    0.0693 H   0  0  0  0  0  0  0  0  0  0  0  0
    3.7398    2.0691    0.5667 H   0  0  0  0  0  0  0  0  0  0  0  0
    2.5182    4.1635    0.2394 H   0  0  0  0  0  0  0  0  0  0  0  0
  1  3  1  0  0  0  0
  1  6  1  0  0  0  0
  1  8  1  0  0  0  0
  2 10  1  0  0  0  0
  2 12  2  0  0  0  0
  3  4  1  0  0  0  0
  3  7  1  0  0  0  0
  3 13  1  0  0  0  0
  4  5  1  0  0  0  0
  4 14  1  0  0  0  0
  4 15  1  0  0  0  0
  5  6  1  0  0  0  0
  5 16  1  0  0  0  0
  5 17  1  0  0  0  0
  6 18  1  0  0  0  0
  6 19  1  0  0  0  0
  7  9  1  0  0  0  0
  7 10  2  0  0  0  0
  8 20  1  0  0  0  0
  8 21  1  0  0  0  0
  8 22  1  0  0  0  0
  9 11  2  0  0  0  0
  9 23  1  0  0  0  0
 10 24  1  0  0  0  0
 11 12  1  0  0  0  0
 11 25  1  0  0  0  0
 12 26  1  0  0  0  0
M  END
> <PUBCHEM_BONDANNOTATIONS>
11  12  8
2  10  8
2  12  8
3  7  3
7  10  8
7  9  8
9  11  8

$$$$
