@<TRIPOS>MOLECULE
*****
 21 23 0 0 0
SMALL
GASTEIGER

@<TRIPOS>ATOM
      1 N          -0.9391   -2.6100   -3.5775 N.3     1  UNL1       -0.2738
      2 C          -2.0232   -2.3028   -2.6020 C.3     1  UNL1        0.0611
      3 C          -1.3813   -2.4294   -1.1707 C.3     1  UNL1        0.0596
      4 C           0.0235   -1.7356   -1.0180 C.3     1  UNL1        0.1715
      5 C           0.7822   -1.3792   -2.3520 C.3     1  UNL1        0.0596
      6 C          -0.1201   -1.3676   -3.6396 C.3     1  UNL1        0.0611
      7 C          -1.1799   -0.2338   -3.6400 C.3     1  UNL1        0.0175
      8 C          -2.4301   -0.8494   -2.9637 C.3     1  UNL1        0.0175
      9 C          -1.2705   -3.3173   -4.8360 C.3     1  UNL1        0.0896
     10 O          -0.0981   -0.6159   -0.2910 O.3     1  UNL1       -0.4519
     11 C           0.4407   -0.2516    0.7804 C.2     1  UNL1        0.3231
     12 O           1.1422   -1.0360    1.4118 O.2     1  UNL1       -0.2497
     13 C           0.2261    1.1246    1.2539 C.3     1  UNL1        0.1541
     14 C           0.6621    2.1365    0.1586 C.3     1  UNL1        0.1975
     15 O          -0.3283    2.2368   -0.8585 O.3     1  UNL1       -0.2194
     16 C           0.6960    1.5945    2.6036 C.ar    1  UNL1       -0.0094
     17 C          -0.0530    2.6635    3.2208 C.ar    1  UNL1       -0.0037
     18 C           0.3255    3.1895    4.4954 C.ar    1  UNL1       -0.0003
     19 C           1.4606    2.6040    5.1417 C.ar    1  UNL1       -0.0000
     20 C           2.2297    1.5356    4.5821 C.ar    1  UNL1       -0.0003
     21 C           1.8349    1.0436    3.3007 C.ar    1  UNL1       -0.0037
@<TRIPOS>BOND
     1     2     1    1
     2     6     1    1
     3     1     9    1
     4     2     3    1
     5     2     8    1
     6     3     4    1
     7     4     5    1
     8     4    10    1
     9     5     6    1
    10     6     7    1
    11     7     8    1
    12    10    11    1
    13    11    12    2
    14    11    13    1
    15    13    14    1
    16    13    16    1
    17    14    15    1
    18    16    17   ar
    19    16    21   ar
    20    17    18   ar
    21    18    19   ar
    22    19    20   ar
    23    20    21   ar
