@<TRIPOS>MOLECULE
121515
 50 53 0 0 0
SMALL
GASTEIGER

@<TRIPOS>ATOM
      1 O           1.9013   -0.0124   -1.0281 O.3     1  UNL1       -0.3856
      2 O           5.0191   -0.8219    2.7628 O.3     1  UNL1       -0.4951
      3 N          -1.7218    0.3944    0.0024 N.3     1  UNL1       -0.2963
      4 N           0.5551   -3.7852    1.9496 N.ar    1  UNL1       -0.2550
      5 C          -1.6805    2.7305   -1.1623 C.3     1  UNL1       -0.0344
      6 C          -2.9408    1.9041   -1.6287 C.3     1  UNL1       -0.0256
      7 C          -0.4823    0.4911   -0.8638 C.3     1  UNL1        0.0408
      8 C          -0.3738    1.9323   -1.4854 C.3     1  UNL1       -0.0314
      9 C          -2.9377    0.5272   -0.8656 C.3     1  UNL1        0.0023
     10 C          -1.7188    2.8800    0.3980 C.3     1  UNL1       -0.0370
     11 C          -1.7672    1.4631    1.0571 C.3     1  UNL1       -0.0005
     12 C          -3.0791    1.7570   -3.1757 C.3     1  UNL1       -0.0516
     13 C           0.7898   -0.0295   -0.1305 C.3     1  UNL1        0.0963
     14 C           0.7437   -1.3567    0.5713 C.ar    1  UNL1       -0.0070
     15 C          -4.3923    1.1108   -3.6754 C.3     1  UNL1       -0.0650
     16 C           1.7503   -1.7389    1.5091 C.ar    1  UNL1        0.0095
     17 C          -0.3031   -2.2832    0.3224 C.ar    1  UNL1       -0.0373
     18 C           1.6117   -2.9768    2.2046 C.ar    1  UNL1        0.0715
     19 C           2.9125   -0.9777    1.7854 C.ar    1  UNL1       -0.0104
     20 C          -0.3918   -3.4884    1.0338 C.ar    1  UNL1        0.0286
     21 C           2.5646   -3.4045    3.1487 C.ar    1  UNL1       -0.0323
     22 C           3.9177   -1.4405    2.6579 C.ar    1  UNL1        0.1208
     23 C           3.7174   -2.6352    3.3727 C.ar    1  UNL1       -0.0179
     24 C           6.0003   -0.8606    1.8521 C.3     1  UNL1        0.0788
     25 H          -1.6554    3.7202   -1.6276 H       1  UNL1        0.0305
     26 H          -3.8204    2.4714   -1.3050 H       1  UNL1        0.0316
     27 H          -0.5865   -0.1950   -1.7132 H       1  UNL1        0.0491
     28 H          -0.2104    1.8859   -2.5650 H       1  UNL1        0.0284
     29 H           0.4929    2.4753   -1.0974 H       1  UNL1        0.0284
     30 H          -3.8470    0.4186   -0.2668 H       1  UNL1        0.0429
     31 H          -2.9598   -0.3326   -1.5399 H       1  UNL1        0.0429
     32 H          -0.8392    3.4257    0.7534 H       1  UNL1        0.0280
     33 H          -2.5861    3.4711    0.7025 H       1  UNL1        0.0280
     34 H          -2.6725    1.3557    1.6619 H       1  UNL1        0.0427
     35 H          -0.9499    1.3351    1.7698 H       1  UNL1        0.0427
     36 H          -3.0024    2.7464   -3.6340 H       1  UNL1        0.0266
     37 H          -2.2553    1.1575   -3.5698 H       1  UNL1        0.0266
     38 H           1.0045    0.7316    0.6219 H       1  UNL1        0.0659
     39 H          -4.3956    1.0710   -4.7662 H       1  UNL1        0.0230
     40 H          -5.2575    1.6894   -3.3487 H       1  UNL1        0.0230
     41 H          -4.5025    0.0883   -3.3113 H       1  UNL1        0.0230
     42 H           1.7175   -0.7007   -1.7003 H       1  UNL1        0.2103
     43 H          -1.0295   -2.1191   -0.3748 H       1  UNL1        0.0636
     44 H           3.0767   -0.0755    1.3352 H       1  UNL1        0.0661
     45 H          -1.1579   -4.1434    0.8673 H       1  UNL1        0.0830
     46 H           2.4406   -4.2827    3.6584 H       1  UNL1        0.0640
     47 H           4.4228   -2.9643    4.0360 H       1  UNL1        0.0655
     48 H           6.7931   -0.1786    2.1557 H       1  UNL1        0.0660
     49 H           5.6632   -0.5632    0.8548 H       1  UNL1        0.0660
     50 H           6.4221   -1.8673    1.7903 H       1  UNL1        0.0660
@<TRIPOS>BOND
     1    13     1    1
     2     1    42    1
     3     2    22    1
     4     2    24    1
     5     3     7    1
     6     3     9    1
     7     3    11    1
     8     4    18   ar
     9     4    20   ar
    10     5     6    1
    11     5     8    1
    12     5    10    1
    13     5    25    1
    14     6     9    1
    15     6    12    1
    16     6    26    1
    17     7     8    1
    18     7    13    1
    19     7    27    1
    20     8    28    1
    21     8    29    1
    22     9    30    1
    23     9    31    1
    24    10    11    1
    25    10    32    1
    26    10    33    1
    27    11    34    1
    28    11    35    1
    29    12    15    1
    30    12    36    1
    31    12    37    1
    32    13    14    1
    33    13    38    1
    34    14    16   ar
    35    14    17   ar
    36    15    39    1
    37    15    40    1
    38    15    41    1
    39    16    18   ar
    40    16    19   ar
    41    17    20   ar
    42    17    43    1
    43    18    21   ar
    44    19    22   ar
    45    19    44    1
    46    20    45    1
    47    21    23   ar
    48    21    46    1
    49    22    23   ar
    50    23    47    1
    51    24    48    1
    52    24    49    1
    53    24    50    1
