@<TRIPOS>MOLECULE
*****
 12 12 0 0 0
SMALL
GASTEIGER

@<TRIPOS>ATOM
      1 C          -2.7208   -2.5317    0.3119 C.3     1  UNL1        0.2526
      2 O          -1.5156   -1.9964    0.1067 O.3     1  UNL1       -0.4682
      3 C          -1.0833   -0.8173   -0.1065 C.ar    1  UNL1        0.1771
      4 C           0.3364   -0.7758   -0.1338 C.ar    1  UNL1        0.0363
      5 C           0.9662    0.4871   -0.3200 C.ar    1  UNL1       -0.0146
      6 C           0.2226    1.6851   -0.5092 C.ar    1  UNL1       -0.0004
      7 C          -1.1936    1.6752   -0.4997 C.ar    1  UNL1        0.0449
      8 C          -1.8078    0.4106   -0.2927 C.ar    1  UNL1        0.2293
      9 O          -3.0600    0.4448   -0.2834 O.3     1  UNL1       -0.2833
     10 C           2.4327    0.5958   -0.3254 C.3     1  UNL1        0.0524
     11 C           3.0511    0.3778    0.9550 C.2     1  UNL1       -0.0214
     12 C           4.3720    0.4450    1.0972 C.2     1  UNL1       -0.0046
@<TRIPOS>BOND
     1     1     2    1
     2     2     3    1
     3     3     4   ar
     4     3     8   ar
     5     4     5   ar
     6     5     6   ar
     7     5    10    1
     8     6     7   ar
     9     7     8   ar
    10     8     9    1
    11    10    11    1
    12    11    12    2
