@<TRIPOS>MOLECULE
*****
 11 11 0 0 0
SMALL
GASTEIGER

@<TRIPOS>ATOM
      1 C           3.6804   -0.4731   -0.0692 C.3     1  UNL1        0.0048
      2 C           2.5130   -1.4772   -0.0140 C.3     1  UNL1        0.0255
      3 C           2.6023   -2.4333   -1.2228 C.3     1  UNL1        0.0048
      4 C           1.1961   -0.7310   -0.0104 C.ar    1  UNL1        0.0164
      5 C           1.2037    0.6593   -0.0181 C.ar    1  UNL1       -0.0014
      6 C           0.0083    1.3670   -0.0162 C.ar    1  UNL1       -0.0044
      7 C          -1.2009    0.6838   -0.0022 C.ar    1  UNL1       -0.0187
      8 C          -2.4936    1.4453   -0.0010 C.3     1  UNL1        0.0311
      9 C          -1.2126   -0.7051    0.0165 C.ar    1  UNL1        0.0374
     10 C          -0.0175   -1.4146    0.0118 C.ar    1  UNL1        0.1914
     11 O          -0.0528   -2.8066    0.0497 O.3     1  UNL1       -0.2869
@<TRIPOS>BOND
     1     1     2    1
     2     2     3    1
     3     2     4    1
     4     4     5   ar
     5     5     6   ar
     6     6     7   ar
     7     7     8    1
     8     7     9   ar
     9     9    10   ar
    10    10     4   ar
    11    10    11    1
