@<TRIPOS>MOLECULE
2256
 28 28 0 0 0
SMALL
GASTEIGER

@<TRIPOS>ATOM
      1 CL          1.9796    4.0962   -1.0975 Cl      1  UNL1       -0.0409
      2 N           2.0440   -0.8587   -0.8003 N.pl3   1  UNL1       -0.3110
      3 N          -2.0423    1.1517   -0.8340 N.pl3   1  UNL1       -0.3136
      4 N           0.0010    0.1753   -1.0014 N.ar    1  UNL1       -0.1811
      5 N           1.9659    1.4566   -1.0496 N.ar    1  UNL1       -0.1840
      6 N          -0.1363    2.5151   -1.0251 N.ar    1  UNL1       -0.1840
      7 C           2.1477   -1.4824    0.4552 C.3     1  UNL1        0.0177
      8 C           2.9450   -2.8028    0.3261 C.3     1  UNL1       -0.0469
      9 C           0.8135   -1.7221    1.2224 C.3     1  UNL1       -0.0469
     10 C           1.3545    0.2463   -0.9924 C.ar    1  UNL1        0.2209
     11 C          -2.6463    1.3202    0.4112 C.3     1  UNL1        0.0090
     12 C          -0.7458    1.3024   -0.9915 C.ar    1  UNL1        0.2207
     13 C          -4.1834    1.2964    0.3365 C.3     1  UNL1       -0.0495
     14 C           1.2198    2.5903   -1.0714 C.ar    1  UNL1        0.2286
     15 H           2.7528   -0.8172    1.0806 H       1  UNL1        0.0493
     16 H           2.5565   -1.1875   -1.5117 H       1  UNL1        0.1492
     17 H           3.9034   -2.6361   -0.1698 H       1  UNL1        0.0247
     18 H           3.1557   -3.2197    1.3140 H       1  UNL1        0.0247
     19 H           2.3831   -3.5445   -0.2460 H       1  UNL1        0.0247
     20 H           0.9911   -2.1937    2.1908 H       1  UNL1        0.0247
     21 H           0.1390   -2.3565    0.6427 H       1  UNL1        0.0247
     22 H           0.3022   -0.7802    1.4333 H       1  UNL1        0.0247
     23 H          -2.3399    2.2615    0.8781 H       1  UNL1        0.0459
     24 H          -2.3266    0.5031    1.0658 H       1  UNL1        0.0459
     25 H          -2.5463    0.8089   -1.5442 H       1  UNL1        0.1489
     26 H          -4.6004    1.3417    1.3450 H       1  UNL1        0.0245
     27 H          -4.5504    2.1560   -0.2271 H       1  UNL1        0.0245
     28 H          -4.5372    0.3798   -0.1399 H       1  UNL1        0.0245
@<TRIPOS>BOND
     1     1    14    1
     2     2     7    1
     3     2    10    1
     4     2    16    1
     5     3    11    1
     6     3    12    1
     7     3    25    1
     8     4    10   ar
     9     4    12   ar
    10     5    10   ar
    11     5    14   ar
    12     6    12   ar
    13     6    14   ar
    14     7     8    1
    15     7     9    1
    16     7    15    1
    17     8    17    1
    18     8    18    1
    19     8    19    1
    20     9    20    1
    21     9    21    1
    22     9    22    1
    23    11    13    1
    24    11    23    1
    25    11    24    1
    26    13    26    1
    27    13    27    1
    28    13    28    1
