@<TRIPOS>MOLECULE
24823
 3 2 0 0 0
SMALL
GASTEIGER

@<TRIPOS>ATOM
      1 O          -0.1850   -0.3204    0.0000 O.2     1  UNL1        0.1610
      2 O           0.9250   -0.3204    0.0000 O.co2   1  UNL1       -0.3966
      3 O          -0.7400    0.6409    0.0000 O.2     1  UNL1        0.2356
@<TRIPOS>UNITY_ATOM_ATTR
1 1
charge 1
2 1
charge -1
@<TRIPOS>BOND
     1     1     2    1
     2     1     3    2
