@<TRIPOS>MOLECULE
2519
 24 25 0 0 0
SMALL
GASTEIGER

@<TRIPOS>ATOM
      1 O           0.2334   -2.4028    0.0000 O.2     1  UNL1       -0.2652
      2 O          -3.0649    0.6291    0.0000 O.2     1  UNL1       -0.2462
      3 N          -0.9932    1.3676   -0.0000 N.ar    1  UNL1       -0.2796
      4 N           2.1442   -0.2040    0.0000 N.ar    1  UNL1       -0.3277
      5 N          -1.4882   -0.9478   -0.0000 N.ar    1  UNL1       -0.2622
      6 N           1.3894    1.8799   -0.0000 N.ar    1  UNL1       -0.2177
      7 C           0.7919   -0.2478    0.0000 C.ar    1  UNL1        0.1512
      8 C           0.3203    1.0664   -0.0000 C.ar    1  UNL1        0.1678
      9 C          -0.1786   -1.2491    0.0000 C.ar    1  UNL1        0.2822
     10 C          -1.8687    0.3474    0.0000 C.ar    1  UNL1        0.3331
     11 C           2.4783    1.1018    0.0000 C.ar    1  UNL1        0.0986
     12 C          -1.3939    2.7265   -0.0000 C.3     1  UNL1        0.0181
     13 C           3.1166   -1.2519    0.0000 C.3     1  UNL1        0.0135
     14 C          -2.4309   -2.0179   -0.0000 C.3     1  UNL1        0.0196
     15 H           3.4289    1.4800    0.0000 H       1  UNL1        0.1029
     16 H          -1.9937    2.9374   -0.8880 H       1  UNL1        0.0458
     17 H          -1.9937    2.9374    0.8880 H       1  UNL1        0.0458
     18 H          -0.5919    3.4694   -0.0000 H       1  UNL1        0.0458
     19 H           3.7476   -1.1709    0.8873 H       1  UNL1        0.0456
     20 H           3.7476   -1.1709   -0.8873 H       1  UNL1        0.0456
     21 H           2.6876   -2.2518    0.0000 H       1  UNL1        0.0456
     22 H          -2.3008   -2.6451   -0.8860 H       1  UNL1        0.0458
     23 H          -2.3008   -2.6451    0.8860 H       1  UNL1        0.0458
     24 H          -3.4866   -1.7380   -0.0000 H       1  UNL1        0.0458
@<TRIPOS>BOND
     1     1     9    2
     2     2    10    2
     3     3     8   ar
     4     3    10   ar
     5     3    12    1
     6     4     7   ar
     7     4    11   ar
     8     4    13    1
     9     5     9   ar
    10     5    10   ar
    11     5    14    1
    12     6     8   ar
    13     6    11   ar
    14     7     8   ar
    15     7     9   ar
    16    11    15    1
    17    12    16    1
    18    12    17    1
    19    12    18    1
    20    13    19    1
    21    13    20    1
    22    13    21    1
    23    14    22    1
    24    14    23    1
    25    14    24    1
