@<TRIPOS>MOLECULE
33603
 28 29 0 0 0
SMALL
GASTEIGER

@<TRIPOS>ATOM
      1 O           1.3199   -1.2826   -2.3735 O.2     1  UNL1       -0.2521
      2 N           0.2887   -0.5625   -0.5067 N.am    1  UNL1       -0.2246
      3 N           0.8782   -2.7595   -0.9754 N.am    1  UNL1       -0.3126
      4 C           0.9987    0.5978   -0.4828 C.ar    1  UNL1        0.0428
      5 C          -0.8801   -0.7084    0.2144 C.ar    1  UNL1        0.0428
      6 C           2.3387    0.6330   -0.0147 C.ar    1  UNL1       -0.0399
      7 C          -1.8014   -1.7766    0.0022 C.ar    1  UNL1       -0.0399
      8 C           0.4324    1.8165   -0.9352 C.ar    1  UNL1       -0.0399
      9 C          -1.2835    0.2116    1.2288 C.ar    1  UNL1       -0.0399
     10 C           0.8121   -1.5125   -1.2811 C.2     1  UNL1        0.3083
     11 C           3.0859    1.8250   -0.0122 C.ar    1  UNL1       -0.0600
     12 C          -2.9933   -1.9343    0.7337 C.ar    1  UNL1       -0.0600
     13 C           1.1668    3.0173   -0.9168 C.ar    1  UNL1       -0.0600
     14 C          -2.4895    0.1019    1.9459 C.ar    1  UNL1       -0.0600
     15 C           2.4968    3.0190   -0.4616 C.ar    1  UNL1       -0.0616
     16 C          -3.3441   -0.9831    1.7025 C.ar    1  UNL1       -0.0616
     17 H           2.7872   -0.2207    0.3272 H       1  UNL1        0.0636
     18 H          -1.6370   -2.4880   -0.7105 H       1  UNL1        0.0636
     19 H          -0.5299    1.8390   -1.2813 H       1  UNL1        0.0636
     20 H          -0.7012    1.0127    1.4796 H       1  UNL1        0.0636
     21 H           4.0549    1.8232    0.3150 H       1  UNL1        0.0618
     22 H          -3.6078   -2.7336    0.5595 H       1  UNL1        0.0618
     23 H           0.7357    3.8880   -1.2355 H       1  UNL1        0.0618
     24 H          -2.7461    0.8055    2.6427 H       1  UNL1        0.0618
     25 H           3.0362    3.8878   -0.4572 H       1  UNL1        0.0618
     26 H          -4.2169   -1.0790    2.2264 H       1  UNL1        0.0618
     27 H           1.2708   -3.3687   -1.5678 H       1  UNL1        0.1465
     28 H           0.5279   -3.0690   -0.1657 H       1  UNL1        0.1465
@<TRIPOS>BOND
     1     1    10    2
     2     2     4    1
     3     2     5    1
     4     2    10   am
     5     3    10   am
     6     3    27    1
     7     3    28    1
     8     4     6   ar
     9     4     8   ar
    10     5     7   ar
    11     5     9   ar
    12     6    11   ar
    13     6    17    1
    14     7    12   ar
    15     7    18    1
    16     8    13   ar
    17     8    19    1
    18     9    14   ar
    19     9    20    1
    20    11    15   ar
    21    11    21    1
    22    12    16   ar
    23    12    22    1
    24    13    15   ar
    25    13    23    1
    26    14    16   ar
    27    14    24    1
    28    15    25    1
    29    16    26    1
