@<TRIPOS>MOLECULE
3830
 25 27 0 0 0
SMALL
GASTEIGER

@<TRIPOS>ATOM
      1 O           1.4125   -2.5121    1.3664 O.2     1  UNL1       -0.4662
      2 N          -0.5207   -0.2768   -0.5753 N.pl3   1  UNL1       -0.3202
      3 N           1.5170    2.0035   -0.8286 N.ar    1  UNL1       -0.3404
      4 N          -2.1050    1.3738   -0.9225 N.ar    1  UNL1       -0.2187
      5 N           0.8639    4.1178   -0.9627 N.ar    1  UNL1       -0.2164
      6 N          -1.5404    3.6602   -1.0460 N.ar    1  UNL1       -0.2144
      7 C          -0.1151   -0.6699    0.7015 C.3     1  UNL1        0.0686
      8 C           0.1793    2.0045   -0.8716 C.ar    1  UNL1        0.1253
      9 C          -0.8016    0.9937   -0.8189 C.ar    1  UNL1        0.1480
     10 C           0.2030   -2.0877    0.9253 C.ar    1  UNL1        0.1218
     11 C          -0.2255    3.3359   -0.9699 C.ar    1  UNL1        0.1825
     12 C          -0.6467   -3.1890    0.8295 C.ar    1  UNL1       -0.0192
     13 C           1.9172    3.2854   -0.8755 C.ar    1  UNL1        0.0963
     14 C           0.0747   -4.2960    1.2579 C.ar    1  UNL1       -0.0236
     15 C          -2.4818    2.6781   -1.0326 C.ar    1  UNL1        0.1205
     16 C           1.3492   -3.8452    1.5768 C.ar    1  UNL1        0.0921
     17 H           0.7655   -0.0964    1.0025 H       1  UNL1        0.0542
     18 H          -0.9151   -0.4299    1.4076 H       1  UNL1        0.0542
     19 H          -0.6731   -0.9182   -1.2406 H       1  UNL1        0.1480
     20 H           2.0911    1.2235   -0.7731 H       1  UNL1        0.1669
     21 H          -1.6226   -3.1870    0.5283 H       1  UNL1        0.0652
     22 H           2.8926    3.5868   -0.8486 H       1  UNL1        0.1027
     23 H          -0.2648   -5.2560    1.3348 H       1  UNL1        0.0649
     24 H          -3.4712    2.9206   -1.0911 H       1  UNL1        0.1048
     25 H           2.1178   -4.4194    1.9262 H       1  UNL1        0.1029
@<TRIPOS>BOND
     1     1    10   ar
     2     1    16   ar
     3     2     7    1
     4     2     9    1
     5     2    19    1
     6     3     8   ar
     7     3    13   ar
     8     3    20    1
     9     4     9   ar
    10     4    15   ar
    11     5    11   ar
    12     5    13   ar
    13     6    11   ar
    14     6    15   ar
    15     7    10    1
    16     7    17    1
    17     7    18    1
    18     8     9   ar
    19     8    11   ar
    20    10    12   ar
    21    12    14   ar
    22    12    21    1
    23    13    22    1
    24    14    16   ar
    25    14    23    1
    26    15    24    1
    27    16    25    1
