@<TRIPOS>MOLECULE
439250
 26 26 0 0 0
SMALL
GASTEIGER

@<TRIPOS>ATOM
      1 C           0.5904    1.0773    0.1830 C.3     1  UNL1       -0.0167
      2 C           1.6147    0.0441   -0.3883 C.3     1  UNL1       -0.0426
      3 C          -0.5934    1.2115   -0.8276 C.3     1  UNL1       -0.0280
      4 C           0.9724   -1.2864   -0.8844 C.3     1  UNL1       -0.0315
      5 C          -0.4141   -1.2057   -1.3580 C.2     1  UNL1       -0.0765
      6 C          -1.1061   -0.0480   -1.3377 C.2     1  UNL1       -0.0845
      7 C           0.1416    0.9264    1.5869 C.2     1  UNL1       -0.0763
      8 C          -1.0323   -2.4359   -1.8398 C.3     1  UNL1       -0.0438
      9 C          -0.1900    2.1376    2.3408 C.3     1  UNL1       -0.0438
     10 C          -0.0003   -0.2609    2.2041 C.2     1  UNL1       -0.0994
     11 H           1.1340    2.0293    0.1343 H       1  UNL1        0.0348
     12 H           2.1176    0.4990   -1.2493 H       1  UNL1        0.0274
     13 H           2.4035   -0.1585    0.3417 H       1  UNL1        0.0274
     14 H          -0.2795    1.7984   -1.6962 H       1  UNL1        0.0313
     15 H          -1.4200    1.7724   -0.3820 H       1  UNL1        0.0313
     16 H           1.6039   -1.6906   -1.6804 H       1  UNL1        0.0310
     17 H           1.0280   -2.0309   -0.0878 H       1  UNL1        0.0310
     18 H          -2.0352   -0.0224   -1.6942 H       1  UNL1        0.0572
     19 H          -1.1049   -3.1516   -1.0183 H       1  UNL1        0.0274
     20 H          -0.4319   -2.8790   -2.6360 H       1  UNL1        0.0274
     21 H          -2.0422   -2.3066   -2.2370 H       1  UNL1        0.0274
     22 H           0.6790    2.7950    2.3990 H       1  UNL1        0.0274
     23 H          -0.9998    2.6789    1.8498 H       1  UNL1        0.0274
     24 H          -0.5168    1.9661    3.3700 H       1  UNL1        0.0274
     25 H          -0.3048   -0.3396    3.1450 H       1  UNL1        0.0534
     26 H           0.1864   -1.1201    1.7626 H       1  UNL1        0.0534
@<TRIPOS>BOND
     1     1     2    1
     2     1     3    1
     3     1     7    1
     4     1    11    1
     5     2     4    1
     6     2    12    1
     7     2    13    1
     8     3     6    1
     9     3    14    1
    10     3    15    1
    11     4     5    1
    12     4    16    1
    13     4    17    1
    14     5     6    2
    15     5     8    1
    16     6    18    1
    17     7     9    1
    18     7    10    2
    19     8    19    1
    20     8    20    1
    21     8    21    1
    22     9    22    1
    23     9    23    1
    24     9    24    1
    25    10    25    1
    26    10    26    1
