@<TRIPOS>MOLECULE
445354
 51 51 0 0 0
SMALL
GASTEIGER

@<TRIPOS>ATOM
      1 O          -3.0287   -6.3253   -2.8989 O.3     1  UNL1       -0.3910
      2 C           2.9540    2.0430    1.4202 C.3     1  UNL1       -0.0099
      3 C           3.3739    3.2157    2.3801 C.3     1  UNL1       -0.0436
      4 C           2.8850    4.5890    1.8830 C.3     1  UNL1       -0.0486
      5 C           1.5295    2.1692    0.9722 C.2     1  UNL1       -0.0427
      6 C           1.3526    4.5353    1.6821 C.3     1  UNL1       -0.0314
      7 C           0.7875    3.3053    1.1035 C.2     1  UNL1       -0.0689
      8 C           3.8677    2.0525    0.1451 C.3     1  UNL1       -0.0558
      9 C           3.2734    0.7284    2.2230 C.3     1  UNL1       -0.0558
     10 C           0.9956    1.0886    0.3286 C.2     1  UNL1       -0.0579
     11 C          -0.6215    3.4577    0.7062 C.3     1  UNL1       -0.0432
     12 C           0.4535    0.0205    0.9360 C.2     1  UNL1       -0.0586
     13 C          -0.0166   -1.0806    0.2892 C.2     1  UNL1       -0.0504
     14 C           0.6668   -2.3426    0.5794 C.3     1  UNL1       -0.0397
     15 C          -1.0796   -0.9755   -0.5399 C.2     1  UNL1       -0.0588
     16 C          -1.6849   -1.9879   -1.2176 C.2     1  UNL1       -0.0613
     17 C          -2.9664   -1.9745   -1.6316 C.2     1  UNL1       -0.0591
     18 C          -3.6386   -2.9965   -2.2542 C.2     1  UNL1       -0.0522
     19 C          -4.5593   -2.6371   -3.3332 C.3     1  UNL1       -0.0399
     20 C          -3.4661   -4.2803   -1.8605 C.2     1  UNL1       -0.0560
     21 C          -4.0616   -5.4957   -2.3792 C.3     1  UNL1        0.0629
     22 H           2.9426    3.0690    3.3771 H       1  UNL1        0.0274
     23 H           4.4581    3.2574    2.5226 H       1  UNL1        0.0274
     24 H           3.1501    5.3690    2.6027 H       1  UNL1        0.0269
     25 H           3.3837    4.8457    0.9450 H       1  UNL1        0.0269
     26 H           0.8793    4.6991    2.6549 H       1  UNL1        0.0310
     27 H           1.1067    5.4035    1.0619 H       1  UNL1        0.0310
     28 H           3.6954    2.9337   -0.4763 H       1  UNL1        0.0238
     29 H           4.9286    2.0341    0.4027 H       1  UNL1        0.0238
     30 H           3.6862    1.1839   -0.4930 H       1  UNL1        0.0238
     31 H           4.2555    0.7536    2.7023 H       1  UNL1        0.0238
     32 H           2.5406    0.5596    3.0151 H       1  UNL1        0.0238
     33 H           3.2755   -0.1586    1.5854 H       1  UNL1        0.0238
     34 H           1.0333    1.1162   -0.6662 H       1  UNL1        0.0621
     35 H          -1.2257    3.7392    1.5716 H       1  UNL1        0.0275
     36 H          -0.7228    4.2362   -0.0530 H       1  UNL1        0.0275
     37 H          -1.1008    2.5714    0.2899 H       1  UNL1        0.0275
     38 H           0.4084   -0.0028    1.9300 H       1  UNL1        0.0620
     39 H          -0.0360   -3.0694    0.9914 H       1  UNL1        0.0278
     40 H           1.0993   -2.7515   -0.3362 H       1  UNL1        0.0278
     41 H           1.4909   -2.2656    1.2953 H       1  UNL1        0.0278
     42 H          -1.4947   -0.0747   -0.6568 H       1  UNL1        0.0620
     43 H          -1.1449   -2.8012   -1.4071 H       1  UNL1        0.0618
     44 H          -3.4921   -1.1441   -1.4647 H       1  UNL1        0.0620
     45 H          -4.2550   -3.1222   -4.2627 H       1  UNL1        0.0277
     46 H          -5.5767   -2.9473   -3.0864 H       1  UNL1        0.0277
     47 H          -4.6096   -1.5666   -3.5541 H       1  UNL1        0.0277
     48 H          -2.8547   -4.4657   -1.0952 H       1  UNL1        0.0597
     49 H          -4.5582   -6.0297   -1.5659 H       1  UNL1        0.0601
     50 H          -4.7982   -5.3396   -3.1670 H       1  UNL1        0.0601
     51 H          -3.4810   -7.1420   -3.1968 H       1  UNL1        0.2098
@<TRIPOS>BOND
     1     1    21    1
     2     1    51    1
     3     2     3    1
     4     2     5    1
     5     2     8    1
     6     2     9    1
     7     3     4    1
     8     3    22    1
     9     3    23    1
    10     4     6    1
    11     4    24    1
    12     4    25    1
    13     5     7    2
    14     5    10    1
    15     6     7    1
    16     6    26    1
    17     6    27    1
    18     7    11    1
    19     8    28    1
    20     8    29    1
    21     8    30    1
    22     9    31    1
    23     9    32    1
    24     9    33    1
    25    10    12    2
    26    10    34    1
    27    11    35    1
    28    11    36    1
    29    11    37    1
    30    12    13    1
    31    12    38    1
    32    13    14    1
    33    13    15    2
    34    14    39    1
    35    14    40    1
    36    14    41    1
    37    15    16    1
    38    15    42    1
    39    16    17    2
    40    16    43    1
    41    17    18    1
    42    17    44    1
    43    18    19    1
    44    18    20    2
    45    19    45    1
    46    19    46    1
    47    19    47    1
    48    20    21    1
    49    20    48    1
    50    21    49    1
    51    21    50    1
