@<TRIPOS>MOLECULE
449093
 29 30 0 0 0
SMALL
GASTEIGER

@<TRIPOS>ATOM
      1 O           2.1651   -3.8482    1.2047 O.3     1  UNL1       -0.3907
      2 N          -0.7608    0.1053   -1.2224 N.pl3   1  UNL1       -0.3238
      3 N           1.2805    2.3683   -1.3184 N.ar    1  UNL1       -0.3404
      4 N          -2.3472    1.7876   -1.4227 N.ar    1  UNL1       -0.2187
      5 N           0.6526    4.4944   -1.2965 N.ar    1  UNL1       -0.2164
      6 N          -1.7595    4.0708   -1.3906 N.ar    1  UNL1       -0.2144
      7 C          -0.0562    2.3896   -1.3513 C.ar    1  UNL1        0.1253
      8 C          -0.4209   -0.4063    0.0336 C.3     1  UNL1        0.0291
      9 C          -1.0466    1.3885   -1.3638 C.ar    1  UNL1        0.1479
     10 C           0.0173   -1.7874    0.1225 C.2     1  UNL1       -0.0660
     11 C          -0.4477    3.7280   -1.3503 C.ar    1  UNL1        0.1825
     12 C           0.2638   -2.4637    1.2685 C.2     1  UNL1       -0.0500
     13 C           0.7416   -3.8450    1.2158 C.3     1  UNL1        0.0651
     14 C           1.6964    3.6447   -1.2762 C.ar    1  UNL1        0.0963
     15 C           0.1130   -1.8953    2.6106 C.3     1  UNL1       -0.0416
     16 C          -2.7121    3.1001   -1.4359 C.ar    1  UNL1        0.1205
     17 H          -1.3168   -0.3012    0.6528 H       1  UNL1        0.0505
     18 H           0.3832    0.1964    0.4679 H       1  UNL1        0.0505
     19 H          -0.8707   -0.4741   -1.9502 H       1  UNL1        0.1478
     20 H           0.1606   -2.2513   -0.7469 H       1  UNL1        0.0588
     21 H           1.8448    1.5781   -1.3225 H       1  UNL1        0.1669
     22 H           0.3890   -4.3859    0.3342 H       1  UNL1        0.0604
     23 H           0.4115   -4.4318    2.0775 H       1  UNL1        0.0604
     24 H           2.6746    3.9318   -1.2343 H       1  UNL1        0.1027
     25 H           1.0535   -1.9662    3.1605 H       1  UNL1        0.0275
     26 H          -0.6520   -2.4446    3.1630 H       1  UNL1        0.0275
     27 H          -0.1778   -0.8457    2.6508 H       1  UNL1        0.0275
     28 H          -3.6989    3.3576   -1.4665 H       1  UNL1        0.1048
     29 H           2.4201   -4.7946    1.1861 H       1  UNL1        0.2098
@<TRIPOS>BOND
     1     1    13    1
     2     1    29    1
     3     2     8    1
     4     2     9    1
     5     2    19    1
     6     3     7   ar
     7     3    14   ar
     8     3    21    1
     9     4     9   ar
    10     4    16   ar
    11     5    11   ar
    12     5    14   ar
    13     6    11   ar
    14     6    16   ar
    15     7     9   ar
    16     7    11   ar
    17     8    10    1
    18     8    17    1
    19     8    18    1
    20    10    12    2
    21    10    20    1
    22    12    13    1
    23    12    15    1
    24    13    22    1
    25    13    23    1
    26    14    24    1
    27    15    25    1
    28    15    26    1
    29    15    27    1
    30    16    28    1
