@<TRIPOS>MOLECULE
5280896
 39 39 0 0 0
SMALL
GASTEIGER

@<TRIPOS>ATOM
      1 O           0.9323    0.4890   -1.7535 O.3     1  UNL1       -0.3796
      2 O          -4.3008   -0.3363   -1.3408 O.2     1  UNL1       -0.2927
      3 O           2.9267   -3.6358    2.2743 O.3     1  UNL1       -0.4775
      4 O           2.0053   -2.7662    0.6614 O.2     1  UNL1       -0.2458
      5 C          -1.1506    1.4579   -0.8846 C.3     1  UNL1        0.0084
      6 C          -0.2307    0.1490   -0.9763 C.3     1  UNL1        0.1111
      7 C          -2.6294    1.0330   -0.5563 C.3     1  UNL1        0.0182
      8 C          -0.8890   -0.9842   -1.6906 C.2     1  UNL1       -0.0339
      9 C          -0.7293    2.5014    0.2118 C.3     1  UNL1       -0.0562
     10 C          -1.1463    2.2556   -2.2420 C.3     1  UNL1       -0.0562
     11 C          -3.0937   -0.1414   -1.2702 C.2     1  UNL1        0.1568
     12 C           0.2312   -0.3143    0.3472 C.2     1  UNL1       -0.0480
     13 C          -2.2356   -1.0486   -1.7964 C.2     1  UNL1       -0.0172
     14 C          -0.0960   -2.0792   -2.2661 C.3     1  UNL1       -0.0404
     15 C           1.3672    0.0800    0.9550 C.2     1  UNL1       -0.0595
     16 C           1.7977   -0.2707    2.1968 C.2     1  UNL1       -0.0439
     17 C           1.8199    0.8043    3.1917 C.3     1  UNL1       -0.0395
     18 C           2.2363   -1.5007    2.5502 C.2     1  UNL1        0.0252
     19 C           2.3788   -2.6366    1.8166 C.2     1  UNL1        0.3298
     20 H          -2.7424    0.7809    0.5021 H       1  UNL1        0.0351
     21 H          -3.3159    1.8664   -0.7402 H       1  UNL1        0.0351
     22 H          -1.3600    3.3943    0.1972 H       1  UNL1        0.0236
     23 H           0.3032    2.8283    0.0806 H       1  UNL1        0.0236
     24 H          -0.8141    2.0937    1.2216 H       1  UNL1        0.0236
     25 H          -1.4248    1.6274   -3.0889 H       1  UNL1        0.0236
     26 H          -1.8370    3.1026   -2.2341 H       1  UNL1        0.0236
     27 H          -0.1602    2.6731   -2.4613 H       1  UNL1        0.0236
     28 H          -0.3580   -0.9408    0.8511 H       1  UNL1        0.0604
     29 H          -2.6517   -1.8146   -2.2788 H       1  UNL1        0.0653
     30 H           1.5267   -0.2884   -1.7187 H       1  UNL1        0.2111
     31 H           0.5549   -1.7091   -3.0589 H       1  UNL1        0.0275
     32 H           0.5232   -2.5393   -1.4973 H       1  UNL1        0.0275
     33 H          -0.6734   -2.8955   -2.7087 H       1  UNL1        0.0275
     34 H           1.9541    0.7336    0.4893 H       1  UNL1        0.0618
     35 H           1.1807    0.5415    4.0370 H       1  UNL1        0.0278
     36 H           2.8380    0.9550    3.5593 H       1  UNL1        0.0278
     37 H           1.4759    1.7792    2.8323 H       1  UNL1        0.0278
     38 H           2.5261   -1.6031    3.4990 H       1  UNL1        0.0691
     39 H           3.2607   -3.6414    3.0893 H       1  UNL1        0.2954
@<TRIPOS>BOND
     1     6     1    1
     2     1    30    1
     3     2    11    2
     4     3    19    1
     5     3    39    1
     6     4    19    2
     7     5     6    1
     8     5     7    1
     9     5     9    1
    10     5    10    1
    11     6     8    1
    12     6    12    1
    13     7    11    1
    14     7    20    1
    15     7    21    1
    16     8    13    2
    17     8    14    1
    18     9    22    1
    19     9    23    1
    20     9    24    1
    21    10    25    1
    22    10    26    1
    23    10    27    1
    24    11    13    1
    25    12    15    2
    26    12    28    1
    27    13    29    1
    28    14    31    1
    29    14    32    1
    30    14    33    1
    31    15    16    1
    32    15    34    1
    33    16    17    1
    34    16    18    2
    35    17    35    1
    36    17    36    1
    37    17    37    1
    38    18    19    1
    39    18    38    1
