@<TRIPOS>MOLECULE
5281166
 33 33 0 0 0
SMALL
GASTEIGER

@<TRIPOS>ATOM
      1 O          -2.7058   -0.2549   -0.7963 O.2     1  UNL1       -0.2971
      2 O           2.4864    3.8395    1.7738 O.3     1  UNL1       -0.4806
      3 O           0.7293    3.3012    2.7360 O.2     1  UNL1       -0.2510
      4 C          -0.2824    1.6618    0.6120 C.3     1  UNL1       -0.0208
      5 C          -0.5394    0.6955   -0.5826 C.3     1  UNL1        0.0242
      6 C          -1.5057    2.6210    0.5986 C.3     1  UNL1       -0.0424
      7 C          -2.5175    2.0312   -0.4026 C.3     1  UNL1        0.0064
      8 C          -1.9838    0.7232   -0.6491 C.2     1  UNL1        0.1370
      9 C           1.1089    2.3670    0.6071 C.3     1  UNL1        0.0483
     10 C           0.1309   -0.6989   -0.4159 C.3     1  UNL1       -0.0250
     11 C           0.0336   -1.6339   -1.5238 C.2     1  UNL1       -0.0873
     12 C           1.4427    3.1983    1.7502 C.2     1  UNL1        0.3050
     13 C           0.5198   -2.8869   -1.5153 C.2     1  UNL1       -0.0882
     14 C           1.2167   -3.5507   -0.4241 C.3     1  UNL1       -0.0376
     15 C           0.3906   -4.7073    0.1770 C.3     1  UNL1       -0.0618
     16 H          -0.3365    1.0728    1.5372 H       1  UNL1        0.0313
     17 H          -0.1612    1.1482   -1.5069 H       1  UNL1        0.0383
     18 H          -1.9491    2.6851    1.5971 H       1  UNL1        0.0272
     19 H          -1.2385    3.6373    0.2967 H       1  UNL1        0.0272
     20 H          -3.5348    2.0130   -0.0020 H       1  UNL1        0.0342
     21 H          -2.5171    2.5934   -1.3411 H       1  UNL1        0.0342
     22 H           1.8940    1.6100    0.5406 H       1  UNL1        0.0380
     23 H           1.1831    2.9800   -0.2952 H       1  UNL1        0.0380
     24 H           1.1966   -0.5380   -0.2400 H       1  UNL1        0.0314
     25 H          -0.2884   -1.1727    0.4767 H       1  UNL1        0.0314
     26 H          -0.4229   -1.3264   -2.3529 H       1  UNL1        0.0569
     27 H           0.3904   -3.4271   -2.3422 H       1  UNL1        0.0569
     28 H           2.1684   -3.9352   -0.7995 H       1  UNL1        0.0305
     29 H           1.4743   -2.8764    0.3963 H       1  UNL1        0.0305
     30 H           3.0478    3.8152    1.0960 H       1  UNL1        0.2951
     31 H           0.9097   -5.1269    1.0407 H       1  UNL1        0.0233
     32 H          -0.5889   -4.3553    0.5101 H       1  UNL1        0.0233
     33 H           0.2485   -5.5032   -0.5566 H       1  UNL1        0.0233
@<TRIPOS>BOND
     1     1     8    2
     2     2    12    1
     3     2    30    1
     4     3    12    2
     5     4     5    1
     6     4     6    1
     7     4     9    1
     8     4    16    1
     9     5     8    1
    10     5    10    1
    11     5    17    1
    12     6     7    1
    13     6    18    1
    14     6    19    1
    15     7     8    1
    16     7    20    1
    17     7    21    1
    18     9    12    1
    19     9    22    1
    20     9    23    1
    21    10    11    1
    22    10    24    1
    23    10    25    1
    24    11    13    2
    25    11    26    1
    26    13    14    1
    27    13    27    1
    28    14    15    1
    29    14    28    1
    30    14    29    1
    31    15    31    1
    32    15    32    1
    33    15    33    1
