@<TRIPOS>MOLECULE
5288826
 40 44 0 0 0
SMALL
GASTEIGER

@<TRIPOS>ATOM
      1 O           0.7714    2.4281    0.7202 O.3     1  UNL1       -0.4811
      2 O          -0.5239    4.1705   -1.0453 O.3     1  UNL1       -0.3841
      3 O           3.6170    2.3585    1.2782 O.3     1  UNL1       -0.5033
      4 N          -1.5870   -2.1930    0.2578 N.3     1  UNL1       -0.3015
      5 C          -0.6019    0.5902    0.3232 C.3     1  UNL1        0.0480
      6 C          -1.2072   -0.0505   -0.9778 C.3     1  UNL1        0.0064
      7 C          -0.8653   -1.5874   -0.9156 C.3     1  UNL1        0.0213
      8 C          -0.5035    2.1536    0.3847 C.3     1  UNL1        0.1399
      9 C          -1.3122   -0.0220    1.5731 C.3     1  UNL1       -0.0263
     10 C           0.8456    0.3246    0.3084 C.ar    1  UNL1        0.0116
     11 C           0.6831   -1.8500   -0.8783 C.3     1  UNL1       -0.0110
     12 C          -1.3245   -1.5718    1.5922 C.3     1  UNL1       -0.0001
     13 C           1.4879   -0.8517   -0.1281 C.ar    1  UNL1       -0.0383
     14 C          -0.9900    2.8266   -0.9395 C.3     1  UNL1        0.1110
     15 C          -0.8133    0.7098   -2.1653 C.2     1  UNL1       -0.0799
     16 C           1.5631    1.4540    0.6845 C.ar    1  UNL1        0.1663
     17 C          -0.7012    2.0507   -2.1413 C.2     1  UNL1       -0.0559
     18 C          -1.6654   -3.6825    0.3049 C.3     1  UNL1       -0.0124
     19 C           2.8825   -0.9473    0.0741 C.ar    1  UNL1       -0.0546
     20 C           2.9564    1.3680    0.8822 C.ar    1  UNL1        0.1588
     21 C           3.6050    0.1439    0.6064 C.ar    1  UNL1       -0.0162
     22 H          -2.2985    0.0480   -0.9548 H       1  UNL1        0.0368
     23 H          -1.2746   -2.0465   -1.8221 H       1  UNL1        0.0472
     24 H          -1.1077    2.5679    1.1989 H       1  UNL1        0.0772
     25 H          -2.3482    0.3310    1.5773 H       1  UNL1        0.0287
     26 H          -0.8582    0.3414    2.5002 H       1  UNL1        0.0287
     27 H           1.0509   -1.8173   -1.9080 H       1  UNL1        0.0329
     28 H           0.9094   -2.8512   -0.5110 H       1  UNL1        0.0329
     29 H          -2.0966   -1.8852    2.3022 H       1  UNL1        0.0427
     30 H          -0.3669   -1.9262    1.9853 H       1  UNL1        0.0427
     31 H          -2.0816    2.8985   -0.8971 H       1  UNL1        0.0675
     32 H          -0.6298    0.2255   -3.0137 H       1  UNL1        0.0573
     33 H          -0.4348    2.5265   -2.9726 H       1  UNL1        0.0596
     34 H          -1.9852   -4.0930   -0.6540 H       1  UNL1        0.0391
     35 H          -2.3961   -4.0132    1.0489 H       1  UNL1        0.0391
     36 H          -0.7056   -4.1344    0.5686 H       1  UNL1        0.0391
     37 H           3.3807   -1.8031   -0.1839 H       1  UNL1        0.0622
     38 H           4.6121    0.0458    0.7613 H       1  UNL1        0.0655
     39 H          -0.9099    4.6363   -0.2727 H       1  UNL1        0.2104
     40 H           3.2238    3.1270    1.4485 H       1  UNL1        0.2923
@<TRIPOS>BOND
     1     1     8    1
     2     1    16    1
     3    14     2    1
     4     2    39    1
     5     3    20    1
     6     3    40    1
     7     4     7    1
     8     4    12    1
     9     4    18    1
    10     5     6    1
    11     5     8    1
    12     5     9    1
    13     5    10    1
    14     6     7    1
    15     6    15    1
    16     6    22    1
    17     7    11    1
    18     7    23    1
    19     8    14    1
    20     8    24    1
    21     9    12    1
    22     9    25    1
    23     9    26    1
    24    10    13   ar
    25    10    16   ar
    26    11    13    1
    27    11    27    1
    28    11    28    1
    29    12    29    1
    30    12    30    1
    31    13    19   ar
    32    14    17    1
    33    14    31    1
    34    15    17    2
    35    15    32    1
    36    16    20   ar
    37    17    33    1
    38    18    34    1
    39    18    35    1
    40    18    36    1
    41    19    21   ar
    42    19    37    1
    43    20    21   ar
    44    21    38    1
