@<TRIPOS>MOLECULE
5366546
 56 55 0 0 0
SMALL
GASTEIGER

@<TRIPOS>ATOM
      1 O           6.7078   -1.2977    2.3289 O.3     1  UNL1       -0.3771
      2 O          -5.6365   -0.0845   -2.1213 O.3     1  UNL1       -0.4588
      3 O          -5.9093    2.0488   -2.2543 O.2     1  UNL1       -0.2456
      4 C           3.1275   -0.6591    0.9444 C.3     1  UNL1       -0.0502
      5 C           4.6694   -0.6737    1.0690 C.3     1  UNL1       -0.0243
      6 C           2.5636    0.1320   -0.2601 C.3     1  UNL1       -0.0501
      7 C           5.2588   -1.3349    2.3623 C.3     1  UNL1        0.0636
      8 C           1.0072    0.2270   -0.2963 C.3     1  UNL1       -0.0404
      9 C           0.5457    0.8728   -1.6412 C.3     1  UNL1       -0.0319
     10 C           4.7322   -0.6921    3.6850 C.3     1  UNL1       -0.0361
     11 C           4.9367   -2.8602    2.3894 C.3     1  UNL1       -0.0361
     12 C           0.4087    0.9356    0.9614 C.3     1  UNL1       -0.0621
     13 C          -0.8999    0.9096   -1.7506 C.2     1  UNL1       -0.0835
     14 C           7.4511   -0.0651    2.3186 C.3     1  UNL1        0.0371
     15 C          -1.6446    2.0284   -1.6737 C.2     1  UNL1       -0.0625
     16 C          -3.0176    2.1170   -1.6088 C.2     1  UNL1       -0.0440
     17 C          -3.5006    3.2566   -0.8188 C.3     1  UNL1       -0.0395
     18 C          -3.8253    1.1905   -2.1821 C.2     1  UNL1        0.0254
     19 C          -5.1752    1.0714   -2.1860 C.2     1  UNL1        0.3324
     20 C          -6.8706   -0.6131   -2.0485 C.3     1  UNL1        0.0978
     21 C          -7.0826   -1.6164   -3.2053 C.3     1  UNL1       -0.0280
     22 C          -7.0235   -1.3075   -0.6741 C.3     1  UNL1       -0.0280
     23 H           2.7419   -1.6796    0.8965 H       1  UNL1        0.0266
     24 H           2.7528   -0.1963    1.8533 H       1  UNL1        0.0266
     25 H           5.0881   -1.1619    0.1840 H       1  UNL1        0.0293
     26 H           4.9910    0.3691    1.0274 H       1  UNL1        0.0293
     27 H           2.9236   -0.3609   -1.1686 H       1  UNL1        0.0268
     28 H           2.9826    1.1426   -0.2580 H       1  UNL1        0.0268
     29 H           0.6287   -0.8016   -0.2854 H       1  UNL1        0.0301
     30 H           0.9213    0.2936   -2.4899 H       1  UNL1        0.0310
     31 H           0.9904    1.8689   -1.7302 H       1  UNL1        0.0310
     32 H           5.2950   -1.0557    4.5465 H       1  UNL1        0.0257
     33 H           4.8211    0.3953    3.6593 H       1  UNL1        0.0257
     34 H           3.6815   -0.9248    3.8707 H       1  UNL1        0.0257
     35 H           5.4327   -3.3568    3.2260 H       1  UNL1        0.0257
     36 H           5.2662   -3.3529    1.4719 H       1  UNL1        0.0257
     37 H           3.8669   -3.0515    2.4981 H       1  UNL1        0.0257
     38 H           0.8243    1.9379    1.0802 H       1  UNL1        0.0233
     39 H          -0.6767    1.0218    0.9124 H       1  UNL1        0.0233
     40 H           0.5906    0.3728    1.8768 H       1  UNL1        0.0233
     41 H          -1.3377    0.0198   -1.8176 H       1  UNL1        0.0572
     42 H           8.5100   -0.3145    2.3684 H       1  UNL1        0.0524
     43 H           7.2946    0.5008    1.3999 H       1  UNL1        0.0524
     44 H           7.2192    0.5668    3.1766 H       1  UNL1        0.0524
     45 H          -1.1278    2.8776   -1.5941 H       1  UNL1        0.0617
     46 H          -3.0592    3.2379    0.1823 H       1  UNL1        0.0278
     47 H          -3.2197    4.1995   -1.2946 H       1  UNL1        0.0278
     48 H          -4.5736    3.2995   -0.6468 H       1  UNL1        0.0278
     49 H          -3.3880    0.4513   -2.6858 H       1  UNL1        0.0691
     50 H          -7.6485    0.1550   -2.1227 H       1  UNL1        0.0728
     51 H          -6.9643   -1.1253   -4.1728 H       1  UNL1        0.0265
     52 H          -8.0898   -2.0374   -3.1616 H       1  UNL1        0.0265
     53 H          -6.3661   -2.4394   -3.1480 H       1  UNL1        0.0265
     54 H          -6.8752   -0.5925    0.1371 H       1  UNL1        0.0265
     55 H          -8.0244   -1.7315   -0.5709 H       1  UNL1        0.0265
     56 H          -6.2946   -2.1131   -0.5580 H       1  UNL1        0.0265
@<TRIPOS>BOND
     1     1     7    1
     2     1    14    1
     3     2    19    1
     4     2    20    1
     5     3    19    2
     6     4     5    1
     7     4     6    1
     8     4    23    1
     9     4    24    1
    10     5     7    1
    11     5    25    1
    12     5    26    1
    13     6     8    1
    14     6    27    1
    15     6    28    1
    16     7    10    1
    17     7    11    1
    18     8     9    1
    19     8    12    1
    20     8    29    1
    21     9    13    1
    22     9    30    1
    23     9    31    1
    24    10    32    1
    25    10    33    1
    26    10    34    1
    27    11    35    1
    28    11    36    1
    29    11    37    1
    30    12    38    1
    31    12    39    1
    32    12    40    1
    33    13    15    2
    34    13    41    1
    35    14    42    1
    36    14    43    1
    37    14    44    1
    38    15    16    1
    39    15    45    1
    40    16    17    1
    41    16    18    2
    42    17    46    1
    43    17    47    1
    44    17    48    1
    45    18    19    1
    46    18    49    1
    47    20    21    1
    48    20    22    1
    49    20    50    1
    50    21    51    1
    51    21    52    1
    52    21    53    1
    53    22    54    1
    54    22    55    1
    55    22    56    1
