@<TRIPOS>MOLECULE
529
 14 13 0 0 0
SMALL
GASTEIGER

@<TRIPOS>ATOM
      1 P           1.2215   -1.0717   -0.0406 P.3     1  UNL1        0.4729
      2 O           0.5160    0.2048   -0.0621 O.3     1  UNL1       -0.2754
      3 O           2.6473   -0.8632   -0.0496 O.3     1  UNL1       -0.3026
      4 O           0.8735   -1.8151    1.1453 O.3     1  UNL1       -0.3026
      5 O           0.8810   -1.8673   -1.1934 O.2     1  UNL1       -0.2275
      6 O          -2.3701    2.1384   -0.0311 O.3     1  UNL1       -0.4790
      7 O          -0.3713    2.7336   -0.0367 O.2     1  UNL1       -0.2484
      8 C          -0.8088    0.4257   -0.0450 C.3     1  UNL1        0.1556
      9 C          -1.1856    1.8213   -0.0380 C.2     1  UNL1        0.3314
     10 H          -1.2701   -0.0287   -0.9276 H       1  UNL1        0.0682
     11 H          -1.2520   -0.0265    0.8483 H       1  UNL1        0.0682
     12 H           3.0410   -0.5047   -0.7508 H       1  UNL1        0.2220
     13 H           1.0775   -2.6683    1.2127 H       1  UNL1        0.2220
     14 H          -2.9999    1.5217   -0.0315 H       1  UNL1        0.2951
@<TRIPOS>BOND
     1     1     2    1
     2     1     3    1
     3     1     4    1
     4     1     5    2
     5     2     8    1
     6     3    12    1
     7     4    13    1
     8     6     9    1
     9     6    14    1
    10     7     9    2
    11     8     9    1
    12     8    10    1
    13     8    11    1
