@<TRIPOS>MOLECULE
6466
 47 51 0 0 0
SMALL
GASTEIGER

@<TRIPOS>ATOM
      1 O           2.1542   -0.8117   -0.0474 O.3     1  UNL1       -0.4528
      2 O          -2.1836    1.1295   -3.9247 O.3     1  UNL1       -0.3843
      3 O           1.3820   -1.2482    4.1145 O.3     1  UNL1       -0.3867
      4 O           3.9756    0.1303    0.6121 O.2     1  UNL1       -0.2501
      5 O          -0.7710    3.3715    0.6867 O.3     1  UNL1       -0.4804
      6 O          -0.5967    2.3244    2.4533 O.2     1  UNL1       -0.2507
      7 C          -0.7685    0.5241   -0.5951 C.3     1  UNL1       -0.0025
      8 C          -0.2185   -0.9603   -0.7098 C.3     1  UNL1        0.0099
      9 C           0.6412   -0.0020    1.3511 C.3     1  UNL1        0.0345
     10 C           0.9101   -1.1496    0.3405 C.3     1  UNL1        0.1397
     11 C           0.1185    1.2037    0.5045 C.3     1  UNL1        0.0705
     12 C          -0.7546    1.2980   -1.9512 C.3     1  UNL1       -0.0130
     13 C           2.0518   -0.0346    2.0348 C.3     1  UNL1        0.1017
     14 C          -1.7228    0.4167   -2.7742 C.3     1  UNL1        0.0874
     15 C          -2.3260    0.4859   -0.4324 C.3     1  UNL1       -0.0224
     16 C           0.0662   -1.4339   -2.1670 C.3     1  UNL1       -0.0428
     17 C          -0.9958   -0.9111   -3.1880 C.3     1  UNL1       -0.0197
     18 C          -2.7878    0.2277   -1.7894 C.2     1  UNL1       -0.0449
     19 C           0.9888   -2.4614    1.0197 C.2     1  UNL1       -0.0418
     20 C           2.1240   -1.3635    2.8988 C.3     1  UNL1        0.0893
     21 C           2.8194   -0.2169    0.8111 C.2     1  UNL1        0.3171
     22 C          -0.4414    2.3296    1.2414 C.2     1  UNL1        0.3088
     23 C           2.4617    1.2312    2.8400 C.3     1  UNL1       -0.0462
     24 C           1.5789   -2.5506    2.2273 C.2     1  UNL1       -0.0550
     25 C          -4.0456   -0.1331   -2.0866 C.2     1  UNL1       -0.0967
     26 H          -1.0026   -1.6578   -0.3923 H       1  UNL1        0.0348
     27 H          -0.1562   -0.2653    2.0587 H       1  UNL1        0.0362
     28 H           0.9923    1.6342    0.0034 H       1  UNL1        0.0423
     29 H           0.2395    1.3707   -2.4012 H       1  UNL1        0.0302
     30 H          -1.1221    2.3284   -1.8667 H       1  UNL1        0.0302
     31 H          -2.6617   -0.2747    0.2795 H       1  UNL1        0.0316
     32 H          -2.7428    1.4356   -0.0876 H       1  UNL1        0.0316
     33 H           1.0502   -1.0600   -2.4631 H       1  UNL1        0.0270
     34 H           0.1289   -2.5249   -2.2158 H       1  UNL1        0.0270
     35 H          -1.7353   -1.6895   -3.3911 H       1  UNL1        0.0296
     36 H          -0.4755   -0.7457   -4.1370 H       1  UNL1        0.0296
     37 H           0.6299   -3.2776    0.5809 H       1  UNL1        0.0609
     38 H           3.1615   -1.5718    3.1764 H       1  UNL1        0.0649
     39 H           1.7538    1.4309    3.6458 H       1  UNL1        0.0241
     40 H           3.4479    1.0945    3.2903 H       1  UNL1        0.0241
     41 H           2.5085    2.1195    2.2075 H       1  UNL1        0.0241
     42 H           1.6392   -3.4358    2.6758 H       1  UNL1        0.0596
     43 H          -1.3867    1.2863   -4.4739 H       1  UNL1        0.2106
     44 H          -4.7326   -0.2430   -1.3792 H       1  UNL1        0.0535
     45 H          -4.3251   -0.2984   -3.0241 H       1  UNL1        0.0535
     46 H           1.8078   -0.5289    4.6249 H       1  UNL1        0.2102
     47 H          -0.6793    3.4775   -0.1814 H       1  UNL1        0.2951
@<TRIPOS>BOND
     1    10     1    1
     2     1    21    1
     3    14     2    1
     4     2    43    1
     5    20     3    1
     6     3    46    1
     7     4    21    2
     8     5    22    1
     9     5    47    1
    10     6    22    2
    11     7     8    1
    12     7    11    1
    13     7    12    1
    14     7    15    1
    15     8    10    1
    16     8    16    1
    17     8    26    1
    18     9    10    1
    19     9    11    1
    20     9    13    1
    21     9    27    1
    22    10    19    1
    23    11    22    1
    24    11    28    1
    25    12    14    1
    26    12    29    1
    27    12    30    1
    28    13    20    1
    29    13    21    1
    30    13    23    1
    31    14    17    1
    32    14    18    1
    33    15    18    1
    34    15    31    1
    35    15    32    1
    36    16    17    1
    37    16    33    1
    38    16    34    1
    39    17    35    1
    40    17    36    1
    41    18    25    2
    42    19    24    2
    43    19    37    1
    44    20    24    1
    45    20    38    1
    46    23    39    1
    47    23    40    1
    48    23    41    1
    49    24    42    1
    50    25    44    1
    51    25    45    1
