@<TRIPOS>MOLECULE
6557
 13 12 0 0 0
SMALL
GASTEIGER

@<TRIPOS>ATOM
      1 C           0.3345   -0.1139   -0.0845 C.2     1  UNL1       -0.0581
      2 C           1.0094   -1.2451    0.5529 C.3     1  UNL1       -0.0403
      3 C          -1.0371   -0.0887   -0.0548 C.2     1  UNL1       -0.0665
      4 C           1.0649    0.8485   -0.6803 C.2     1  UNL1       -0.0958
      5 C          -1.8333    0.9907   -0.0338 C.2     1  UNL1       -0.0985
      6 H           0.7327   -1.3016    1.6086 H       1  UNL1        0.0277
      7 H           0.7275   -2.1854    0.0733 H       1  UNL1        0.0277
      8 H           2.1013   -1.1970    0.5240 H       1  UNL1        0.0277
      9 H          -1.5135   -0.9631   -0.0289 H       1  UNL1        0.0614
     10 H           2.0567    0.8276   -0.6894 H       1  UNL1        0.0537
     11 H           0.6487    1.6193   -1.1476 H       1  UNL1        0.0537
     12 H          -1.4710    1.9148   -0.0229 H       1  UNL1        0.0535
     13 H          -2.8209    0.8939   -0.0167 H       1  UNL1        0.0535
@<TRIPOS>BOND
     1     1     2    1
     2     1     3    1
     3     1     4    2
     4     2     6    1
     5     2     7    1
     6     2     8    1
     7     3     5    2
     8     3     9    1
     9     4    10    1
    10     4    11    1
    11     5    12    1
    12     5    13    1
