@<TRIPOS>MOLECULE
802
 22 23 0 0 0
SMALL
GASTEIGER

@<TRIPOS>ATOM
      1 O           2.9338   -2.4608    1.3459 O.3     1  UNL1       -0.4804
      2 O           1.7917   -0.9437    2.1663 O.2     1  UNL1       -0.2507
      3 N           0.2588    2.2282   -0.2601 N.ar    1  UNL1       -0.3604
      4 C          -0.3950    0.1013   -0.2623 C.ar    1  UNL1        0.0033
      5 C           0.9991    0.1141   -0.2614 C.ar    1  UNL1       -0.0118
      6 C          -0.8224    1.4333   -0.2586 C.ar    1  UNL1        0.0467
      7 C           1.3623    1.4623   -0.2672 C.ar    1  UNL1        0.0064
      8 C           1.9095   -1.0504   -0.1935 C.3     1  UNL1        0.0718
      9 C          -1.3294   -0.9535   -0.2476 C.ar    1  UNL1       -0.0523
     10 C          -2.1904    1.7549   -0.2416 C.ar    1  UNL1       -0.0378
     11 C          -2.7031   -0.6413   -0.2336 C.ar    1  UNL1       -0.0611
     12 C          -3.1314    0.7036   -0.2315 C.ar    1  UNL1       -0.0598
     13 C           2.2145   -1.4892    1.1561 C.2     1  UNL1        0.3091
     14 H           2.8414   -0.8093   -0.7111 H       1  UNL1        0.0427
     15 H           1.4634   -1.8836   -0.7422 H       1  UNL1        0.0427
     16 H           2.3182    1.8233   -0.2611 H       1  UNL1        0.0810
     17 H           0.2477    3.1978   -0.2485 H       1  UNL1        0.1653
     18 H          -1.0225   -1.9284   -0.2435 H       1  UNL1        0.0624
     19 H          -2.4954    2.7302   -0.2323 H       1  UNL1        0.0638
     20 H          -3.3928   -1.3963   -0.2219 H       1  UNL1        0.0618
     21 H          -4.1308    0.9171   -0.2198 H       1  UNL1        0.0618
     22 H           3.2728   -2.9096    0.6696 H       1  UNL1        0.2951
@<TRIPOS>BOND
     1     1    13    1
     2     1    22    1
     3     2    13    2
     4     3     6   ar
     5     3     7   ar
     6     3    17    1
     7     4     5   ar
     8     4     6   ar
     9     4     9   ar
    10     5     7   ar
    11     5     8    1
    12     6    10   ar
    13     7    16    1
    14     8    13    1
    15     8    14    1
    16     8    15    1
    17     9    11   ar
    18     9    18    1
    19    10    12   ar
    20    10    19    1
    21    11    12   ar
    22    11    20    1
    23    12    21    1
