@<TRIPOS>MOLECULE
8223
 78 85 0 0 0
SMALL
GASTEIGER

@<TRIPOS>ATOM
      1 O           0.0617   -2.9808   -1.4777 O.3     1  UNL1       -0.2988
      2 O          -0.3083   -0.6490   -1.5401 O.3     1  UNL1       -0.3481
      3 O          -4.1809   -2.0004   -4.0464 O.2     1  UNL1       -0.2735
      4 O          -2.8081   -3.7545   -0.0050 O.2     1  UNL1       -0.2704
      5 O           2.1518   -3.0880    0.3985 O.2     1  UNL1       -0.2750
      6 N          -2.0559   -1.4142   -3.9680 N.am    1  UNL1       -0.2900
      7 N          -2.0379   -2.2045   -1.4137 N.am    1  UNL1       -0.2331
      8 N           0.0611   -2.6598    0.8176 N.am    1  UNL1       -0.2798
      9 N           3.9628   -0.1237    2.6186 N.3     1  UNL1       -0.2971
     10 N           2.9363    5.5906    1.3243 N.ar    1  UNL1       -0.3604
     11 C          -0.8806   -2.0391   -3.5260 C.3     1  UNL1        0.0987
     12 C          -0.7797   -1.9317   -1.9690 C.3     1  UNL1        0.2691
     13 C           0.2703   -1.4259   -4.3571 C.3     1  UNL1       -0.0261
     14 C          -3.2396   -1.6145   -1.9189 C.3     1  UNL1        0.1113
     15 C          -1.8747   -0.4179   -4.9218 C.3     1  UNL1        0.0154
     16 C          -0.4525   -0.6395   -5.4644 C.3     1  UNL1       -0.0352
     17 C          -0.4985   -3.4253   -0.2347 C.3     1  UNL1        0.2150
     18 C          -3.1980   -1.6908   -3.3850 C.2     1  UNL1        0.2371
     19 C          -1.8872   -3.1278   -0.5155 C.2     1  UNL1        0.2707
     20 C          -3.4853   -0.1222   -1.5016 C.3     1  UNL1       -0.0003
     21 C          -0.2560   -4.9533   -0.0662 C.3     1  UNL1       -0.0096
     22 C           1.8361   -1.4177    1.9791 C.3     1  UNL1        0.0670
     23 C           3.5326    0.9547    1.6599 C.3     1  UNL1        0.0397
     24 C           1.3370   -2.4279    1.0336 C.2     1  UNL1        0.2235
     25 C          -3.6163    0.2707   -0.0691 C.ar    1  UNL1       -0.0451
     26 C           3.3935   -1.4356    2.1956 C.3     1  UNL1        0.0138
     27 C           2.0499    1.0690    1.5543 C.2     1  UNL1       -0.0254
     28 C           4.4147    2.2562    1.7715 C.3     1  UNL1       -0.0059
     29 C           1.3270   -0.0683    1.6976 C.2     1  UNL1       -0.0658
     30 C           1.4568    2.3334    1.3101 C.ar    1  UNL1       -0.0112
     31 C           3.6544    3.4957    1.5694 C.ar    1  UNL1       -0.0200
     32 C           2.2885    3.4719    1.3527 C.ar    1  UNL1        0.0103
     33 C           3.8243    0.1341    4.0813 C.3     1  UNL1       -0.0121
     34 C          -3.7207    1.6423    0.2743 C.ar    1  UNL1       -0.0585
     35 C          -3.6436   -0.6562    0.9970 C.ar    1  UNL1       -0.0585
     36 C           1.8670    4.7896    1.1859 C.ar    1  UNL1        0.0473
     37 C           4.0295    4.8387    1.5556 C.ar    1  UNL1        0.0060
     38 C           0.0945    2.6313    1.0206 C.ar    1  UNL1       -0.0536
     39 C           0.5121    5.0477    0.9254 C.ar    1  UNL1       -0.0378
     40 C          -3.7805    2.0608    1.6185 C.ar    1  UNL1       -0.0615
     41 C          -3.6555   -0.2565    2.3420 C.ar    1  UNL1       -0.0615
     42 C          -0.3732    3.9541    0.8343 C.ar    1  UNL1       -0.0592
     43 C          -3.7222    1.1101    2.6529 C.ar    1  UNL1       -0.0617
     44 H          -0.9599   -3.1005   -3.7970 H       1  UNL1        0.0572
     45 H           0.9230   -2.1958   -4.7792 H       1  UNL1        0.0286
     46 H           0.8988   -0.7522   -3.7703 H       1  UNL1        0.0286
     47 H          -4.1208   -2.1710   -1.5808 H       1  UNL1        0.0602
     48 H          -2.6124   -0.4495   -5.7285 H       1  UNL1        0.0465
     49 H          -1.9415    0.5577   -4.4290 H       1  UNL1        0.0465
     50 H           0.0468    0.3076   -5.6867 H       1  UNL1        0.0281
     51 H          -0.4952   -1.2316   -6.3825 H       1  UNL1        0.0281
     52 H          -4.3999    0.2254   -1.9949 H       1  UNL1        0.0336
     53 H          -2.6723    0.4842   -1.9121 H       1  UNL1        0.0336
     54 H          -0.2854   -0.6784   -0.5615 H       1  UNL1        0.2145
     55 H          -0.5439   -2.2581    1.4092 H       1  UNL1        0.1519
     56 H           0.8044   -5.2021   -0.0491 H       1  UNL1        0.0279
     57 H          -0.6960   -5.3072    0.8694 H       1  UNL1        0.0279
     58 H          -0.7029   -5.5188   -0.8874 H       1  UNL1        0.0279
     59 H           1.4107   -1.6792    2.9539 H       1  UNL1        0.0450
     60 H           3.7920    0.6058    0.6510 H       1  UNL1        0.0515
     61 H           3.6740   -2.2470    2.8745 H       1  UNL1        0.0437
     62 H           3.9257   -1.6731    1.2695 H       1  UNL1        0.0437
     63 H           5.2322    2.2373    1.0439 H       1  UNL1        0.0332
     64 H           4.8918    2.3630    2.7428 H       1  UNL1        0.0332
     65 H           0.3366   -0.0168    1.6520 H       1  UNL1        0.0583
     66 H           4.1609   -0.7251    4.6647 H       1  UNL1        0.0391
     67 H           2.7931    0.3567    4.3590 H       1  UNL1        0.0391
     68 H           4.4517    0.9589    4.4128 H       1  UNL1        0.0391
     69 H          -3.7510    2.3595   -0.4552 H       1  UNL1        0.0620
     70 H          -3.6659   -1.6514    0.8271 H       1  UNL1        0.0620
     71 H           4.9749    5.1973    1.6985 H       1  UNL1        0.0810
     72 H          -0.6014    1.8904    0.9327 H       1  UNL1        0.0624
     73 H           2.9253    6.5592    1.2673 H       1  UNL1        0.1653
     74 H           0.1816    6.0065    0.8014 H       1  UNL1        0.0638
     75 H          -3.8611    3.0536    1.8472 H       1  UNL1        0.0618
     76 H          -3.6223   -0.9600    3.0840 H       1  UNL1        0.0618
     77 H          -1.3610    4.1241    0.6320 H       1  UNL1        0.0618
     78 H          -3.7372    1.4049    3.6311 H       1  UNL1        0.0618
@<TRIPOS>BOND
     1     1    12    1
     2     1    17    1
     3    12     2    1
     4     2    54    1
     5     3    18    2
     6     4    19    2
     7     5    24    2
     8     6    11    1
     9     6    15    1
    10     6    18   am
    11     7    12    1
    12     7    14    1
    13     7    19   am
    14    17     8    1
    15     8    24   am
    16     8    55    1
    17     9    23    1
    18     9    26    1
    19     9    33    1
    20    10    36   ar
    21    10    37   ar
    22    10    73    1
    23    11    12    1
    24    11    13    1
    25    11    44    1
    26    13    16    1
    27    13    45    1
    28    13    46    1
    29    14    18    1
    30    14    20    1
    31    14    47    1
    32    15    16    1
    33    15    48    1
    34    15    49    1
    35    16    50    1
    36    16    51    1
    37    17    19    1
    38    17    21    1
    39    20    25    1
    40    20    52    1
    41    20    53    1
    42    21    56    1
    43    21    57    1
    44    21    58    1
    45    22    24    1
    46    22    26    1
    47    22    29    1
    48    22    59    1
    49    23    27    1
    50    23    28    1
    51    23    60    1
    52    25    34   ar
    53    25    35   ar
    54    26    61    1
    55    26    62    1
    56    27    29    2
    57    27    30    1
    58    28    31    1
    59    28    63    1
    60    28    64    1
    61    29    65    1
    62    30    32   ar
    63    30    38   ar
    64    31    32   ar
    65    31    37   ar
    66    32    36   ar
    67    33    66    1
    68    33    67    1
    69    33    68    1
    70    34    40   ar
    71    34    69    1
    72    35    41   ar
    73    35    70    1
    74    36    39   ar
    75    37    71    1
    76    38    42   ar
    77    38    72    1
    78    39    42   ar
    79    39    74    1
    80    40    43   ar
    81    40    75    1
    82    41    43   ar
    83    41    76    1
    84    42    77    1
    85    43    78    1
