@<TRIPOS>MOLECULE
94175
 48 51 0 0 0
SMALL
GASTEIGER

@<TRIPOS>ATOM
      1 O           0.7098   -1.5877   -1.1428 O.3     1  UNL1       -0.3856
      2 O           1.2261   -4.7245    2.6038 O.3     1  UNL1       -0.4951
      3 N          -0.4520    1.8870   -0.1733 N.3     1  UNL1       -0.2960
      4 N          -3.3155   -1.8850    1.8026 N.ar    1  UNL1       -0.2550
      5 C           1.7331    2.7841   -1.2833 C.3     1  UNL1       -0.0310
      6 C           0.1525    0.7926   -1.0301 C.3     1  UNL1        0.0408
      7 C           1.5166    1.2772   -1.6453 C.3     1  UNL1       -0.0312
      8 C           0.4852    3.6287   -1.7456 C.3     1  UNL1       -0.0075
      9 C           1.8288    2.8426    0.2814 C.3     1  UNL1       -0.0367
     10 C          -0.8020    3.0611   -1.0392 C.3     1  UNL1        0.0058
     11 C           0.4857    2.3451    0.9081 C.3     1  UNL1       -0.0004
     12 C           0.2099   -0.5676   -0.2754 C.3     1  UNL1        0.0963
     13 C           0.3248    3.6906   -3.1969 C.2     1  UNL1       -0.0865
     14 C          -1.0208   -1.0586    0.4310 C.ar    1  UNL1       -0.0070
     15 C           0.4329    4.7883   -3.9513 C.2     1  UNL1       -0.1023
     16 C          -0.9552   -2.1243    1.3763 C.ar    1  UNL1        0.0095
     17 C          -2.2957   -0.4843    0.1794 C.ar    1  UNL1       -0.0373
     18 C          -2.1439   -2.5146    2.0609 C.ar    1  UNL1        0.0715
     19 C           0.2220   -2.8573    1.6650 C.ar    1  UNL1       -0.0104
     20 C          -3.4318   -0.8972    0.8904 C.ar    1  UNL1        0.0286
     21 C          -2.1441   -3.5673    2.9961 C.ar    1  UNL1       -0.0323
     22 C           0.2084   -3.9747    2.5225 C.ar    1  UNL1        0.1208
     23 C          -0.9674   -4.2977    3.2227 C.ar    1  UNL1       -0.0179
     24 C           1.5295   -5.6597    1.6929 C.3     1  UNL1        0.0788
     25 H           2.6593    3.1605   -1.7274 H       1  UNL1        0.0308
     26 H          -0.5143    0.5950   -1.8782 H       1  UNL1        0.0491
     27 H           2.3634    0.6872   -1.2828 H       1  UNL1        0.0284
     28 H           1.5277    1.1371   -2.7295 H       1  UNL1        0.0284
     29 H           0.6414    4.6439   -1.3627 H       1  UNL1        0.0358
     30 H           2.6570    2.2222    0.6380 H       1  UNL1        0.0280
     31 H           2.0467    3.8606    0.6130 H       1  UNL1        0.0280
     32 H          -1.2864    3.8362   -0.4371 H       1  UNL1        0.0432
     33 H          -1.5848    2.7532   -1.7405 H       1  UNL1        0.0432
     34 H           0.0208    3.1413    1.4968 H       1  UNL1        0.0427
     35 H           0.6620    1.5491    1.6346 H       1  UNL1        0.0427
     36 H           0.9870   -0.4312    0.4789 H       1  UNL1        0.0659
     37 H           0.1021    2.8450   -3.6721 H       1  UNL1        0.0570
     38 H           0.0157   -1.7436   -1.8152 H       1  UNL1        0.2103
     39 H           0.6462    5.6720   -3.5555 H       1  UNL1        0.0532
     40 H           0.2988    4.7382   -4.9337 H       1  UNL1        0.0532
     41 H          -2.4457    0.2442   -0.5181 H       1  UNL1        0.0636
     42 H           1.1174   -2.6247    1.2320 H       1  UNL1        0.0661
     43 H          -4.3423   -0.4647    0.7233 H       1  UNL1        0.0830
     44 H          -2.9996   -3.8251    3.4939 H       1  UNL1        0.0640
     45 H          -0.9782   -5.0850    3.8755 H       1  UNL1        0.0655
     46 H           2.4799   -6.1204    1.9571 H       1  UNL1        0.0660
     47 H           1.6250   -5.2468    0.6839 H       1  UNL1        0.0660
     48 H           0.7643   -6.4407    1.6760 H       1  UNL1        0.0660
@<TRIPOS>BOND
     1    12     1    1
     2     1    38    1
     3     2    22    1
     4     2    24    1
     5     3     6    1
     6     3    10    1
     7     3    11    1
     8     4    18   ar
     9     4    20   ar
    10     5     7    1
    11     5     8    1
    12     5     9    1
    13     5    25    1
    14     6     7    1
    15     6    12    1
    16     6    26    1
    17     7    27    1
    18     7    28    1
    19     8    10    1
    20     8    13    1
    21     8    29    1
    22     9    11    1
    23     9    30    1
    24     9    31    1
    25    10    32    1
    26    10    33    1
    27    11    34    1
    28    11    35    1
    29    12    14    1
    30    12    36    1
    31    13    15    2
    32    13    37    1
    33    14    16   ar
    34    14    17   ar
    35    15    39    1
    36    15    40    1
    37    16    18   ar
    38    16    19   ar
    39    17    20   ar
    40    17    41    1
    41    18    21   ar
    42    19    22   ar
    43    19    42    1
    44    20    43    1
    45    21    23   ar
    46    21    44    1
    47    22    23   ar
    48    23    45    1
    49    24    46    1
    50    24    47    1
    51    24    48    1
