@<TRIPOS>MOLECULE
942
 26 27 0 0 0
SMALL
GASTEIGER

@<TRIPOS>ATOM
      1 N          -0.7135   -0.8615   -0.9073 N.3     1  UNL1       -0.2984
      2 N           0.6705    3.2420    0.1491 N.ar    1  UNL1       -0.2629
      3 C          -0.1500   -0.4618    0.4084 C.3     1  UNL1        0.0368
      4 C          -1.3687   -0.5945    1.3562 C.3     1  UNL1       -0.0320
      5 C          -2.2348   -1.7130    0.7355 C.3     1  UNL1       -0.0385
      6 C          -1.5705   -2.0358   -0.6177 C.3     1  UNL1       -0.0008
      7 C           0.5824    0.8432    0.3939 C.ar    1  UNL1       -0.0122
      8 C           0.2340   -1.0319   -2.0432 C.3     1  UNL1       -0.0122
      9 C           1.9921    0.8707    0.5327 C.ar    1  UNL1       -0.0542
     10 C          -0.0528    2.0925    0.1919 C.ar    1  UNL1        0.0322
     11 C           2.7216    2.0715    0.4750 C.ar    1  UNL1       -0.0433
     12 C           2.0197    3.2726    0.2826 C.ar    1  UNL1        0.0276
     13 H           0.5483   -1.2504    0.7215 H       1  UNL1        0.0512
     14 H          -1.0603   -0.8477    2.3743 H       1  UNL1        0.0284
     15 H          -1.9562    0.3256    1.4139 H       1  UNL1        0.0284
     16 H          -3.2662   -1.3770    0.5916 H       1  UNL1        0.0278
     17 H          -2.2631   -2.5998    1.3756 H       1  UNL1        0.0278
     18 H          -2.3126   -2.1981   -1.4027 H       1  UNL1        0.0427
     19 H          -0.9708   -2.9486   -0.5232 H       1  UNL1        0.0427
     20 H          -0.3017   -1.2960   -2.9566 H       1  UNL1        0.0391
     21 H           0.7613   -0.0992   -2.2500 H       1  UNL1        0.0391
     22 H           0.9785   -1.8056   -1.8418 H       1  UNL1        0.0391
     23 H           2.5184    0.0038    0.6650 H       1  UNL1        0.0622
     24 H          -1.0636    2.1663    0.0693 H       1  UNL1        0.0833
     25 H           3.7398    2.0691    0.5667 H       1  UNL1        0.0633
     26 H           2.5182    4.1635    0.2394 H       1  UNL1        0.0829
@<TRIPOS>BOND
     1     1     3    1
     2     1     6    1
     3     1     8    1
     4     2    10   ar
     5     2    12   ar
     6     3     4    1
     7     3     7    1
     8     3    13    1
     9     4     5    1
    10     4    14    1
    11     4    15    1
    12     5     6    1
    13     5    16    1
    14     5    17    1
    15     6    18    1
    16     6    19    1
    17     7     9   ar
    18     7    10   ar
    19     8    20    1
    20     8    21    1
    21     8    22    1
    22     9    11   ar
    23     9    23    1
    24    10    24    1
    25    11    12   ar
    26    11    25    1
    27    12    26    1
